LTspice 24.1.5 for Windows
Circuit: C:\Users\ramaz\Desktop\Circuitos II\TP-TA138-G7\Simulación\LDO\simulacion_LDO.net
Start Time: Thu Apr  9 12:49:13 2026
C:\Users\ramaz\Desktop\Circuitos II\TP-TA138-G7\Simulación\LDO\simulacion_LDO.net(50): Sub-circuit name listed twice. This is most likely because the corresponding symbol contains the name in more than one attribute.
X§U1 N014 N013 vs vcc 0 LM358 LM358
                             ^^^^^^
C:\Users\ramaz\Desktop\Circuitos II\TP-TA138-G7\Simulación\LDO\simulacion_LDO.net(51): Sub-circuit name listed twice. This is most likely because the corresponding symbol contains the name in more than one attribute.
X§U2 N019 N020 N019 vcc 0 LM358 LM358
                               ^^^^^^
C:\Users\ramaz\Desktop\Circuitos II\TP-TA138-G7\Simulación\LDO\simulacion_LDO.net(52): Sub-circuit name listed twice. This is most likely because the corresponding symbol contains the name in more than one attribute.
X§U8 N010 N012 N010 vcc 0 LM358 LM358
                               ^^^^^^
C:\Users\ramaz\Desktop\Circuitos II\TP-TA138-G7\Simulación\LDO\simulacion_LDO.net(53): Sub-circuit name listed twice. This is most likely because the corresponding symbol contains the name in more than one attribute.
X§U9 N011 N018 vref_current vcc 0 LM358 LM358
                                       ^^^^^^
solver = Normal
Maximum thread count: 12
tnom = 27
temp = 27
method = trap
WARNING: Node nc_02 is floating.

Direct Newton iteration failed to find .op point.  (Use ".option noopiter" to skip.)
Starting Gmin stepping
Gmin = 10
vernier = 0.5
Gmin = 1.67772
vernier = 0.25
vernier = 0.125
Gmin = 1.20453
vernier = 0.0625
vernier = 0.0833333
vernier = 0.0416667
Gmin = 1.12594
vernier = 0.0208333
vernier = 0.0277778
vernier = 0.0138889
Gmin = 1.09327
vernier = 0.0185185
vernier = 0.00925925
Gmin = 1.06829
vernier = 0.0123457
vernier = 0.00617283
vernier = 0.00823044
Gmin = 1.0533
vernier = 0.00411522
vernier = 0.00548696
Gmin = 1.04431
vernier = 0.00274348
vernier = 0.00365797
Gmin = 1.03789
vernier = 0.00182899
vernier = 0.00243865
Gmin = 1.033
vernier = 0.00325153
vernier = 0.00162576
Gmin = 1.0286
vernier = 0.00216769
vernier = 0.00108384
vernier = 0.00144512
Gmin = 1.026
vernier = 0.00192683
vernier = 0.000963415
Gmin = 1.02341
vernier = 0.00128455
vernier = 0.000642277
Gmin = 1.02111
vernier = 0.000856369
Gmin = 1.01915
vernier = 0.00114182
vernier = 0.000570912
vernier = 0.000761216
Gmin = 1.01784
vernier = 0.00101495
vernier = 0.000507477
Gmin = 1.01661
vernier = 0.000676636
vernier = 0.000902182
vernier = 0.000451091
Gmin = 1.01535
vernier = 0.000601454
vernier = 0.000451091
Gmin = 1.01432
vernier = 0.000601454
vernier = 0.000451091
Gmin = 1.01341
vernier = 0.000601454
vernier = 0.000451091
vernier = 0.000601454
vernier = 0.00045109
Gmin = 1.01272
Gmin = 0
Gmin stepping failed

Starting source stepping with srcstepmethod=0
Source Step = 3.0303%
Source Step = 33.3333%
Source Step = 63.6364%
vernier = 0.25
Source Step = 60.6238%
Source Step = 60.6534%
Source Step = 60.683%
Source Step = 60.7126%
Source Step = 60.7422%
vernier = 0.00146484
Source Step = 60.7733%
Source Step = 60.8176%
Source Step = 60.862%
Source Step = 60.9064%
Source Step = 60.9508%
Source Step = 60.9952%
vernier = 0.00219727
Source Step = 61.0618%
Source Step = 61.1284%
Source Step = 61.195%
Source Step = 61.2615%
Source Step = 61.3281%
vernier = 0.0032959
Source Step = 61.4247%
Source Step = 61.5245%
Source Step = 61.6244%
Source Step = 61.7243%
Source Step = 61.8242%
vernier = 0.00494385
Source Step = 61.964%
Source Step = 62.1138%
Source Step = 62.2636%
Source Step = 62.4134%
Source Step = 62.5633%
vernier = 0.00741577
Source Step = 62.7655%
Source Step = 62.9902%
Source Step = 63.2149%
Source Step = 63.4397%
Source Step = 63.6644%
vernier = 0.0111237
Source Step = 63.9565%
Source Step = 64.2936%
Source Step = 64.6307%
Source Step = 64.9678%
Source Step = 65.3048%
vernier = 0.0166855
Source Step = 65.7262%
Source Step = 66.2318%
Source Step = 66.7374%
Source Step = 67.2431%
Source Step = 67.7487%
vernier = 0.0250282
Source Step = 68.3554%
Source Step = 69.1139%
Source Step = 69.8723%
Source Step = 70.6307%
Source Step = 71.3891%
vernier = 0.0375423
Source Step = 72.2613%
Source Step = 73.399%
Source Step = 74.5366%
Source Step = 75.6743%
Source Step = 76.8119%
vernier = 0.0563135
Source Step = 78.0633%
Source Step = 79.7698%
Source Step = 81.4763%
Source Step = 83.1828%
Source Step = 84.8892%
vernier = 0.0844703
Source Step = 86.681%
Source Step = 89.2407%
Source Step = 90.2766%
Source Step = 90.3166%
Source Step = 90.3566%
Source Step = 90.3966%
Source Step = 90.4366%
Source Step = 90.4766%
Source Step = 90.5166%
Source Step = 90.5566%
Source Step = 90.5966%
Source Step = 90.6366%
Source Step = 90.6766%
Source Step = 90.7166%
Source Step = 90.7565%
Source Step = 90.7965%
Source Step = 90.8365%
Source Step = 90.8765%
Source Step = 90.9165%
Source Step = 90.9565%
Source Step = 90.9965%
Source Step = 91.0365%
Source Step = 91.0765%
Source Step = 91.1165%
Source Step = 91.1565%
Source Step = 91.1965%
Source Step = 91.2365%
Source Step = 91.2765%
Source Step = 91.3165%
Source Step = 91.3565%
Source Step = 91.3965%
Source Step = 91.4365%
Source Step = 91.4765%
Source Step = 91.5165%
Source Step = 91.5565%
Source Step = 91.5964%
Source Step = 91.6364%
Source Step = 91.6764%
Source Step = 91.7164%
Source Step = 91.7564%
Source Step = 91.7964%
Source Step = 91.8364%
Source Step = 91.8764%
Source Step = 91.9164%
vernier = 0.00197977
Source Step = 91.9604%
Source Step = 92.0204%
Source Step = 92.0804%
Source Step = 92.1404%
Source Step = 92.2004%
vernier = 0.00296966
Source Step = 92.2634%
Source Step = 92.3534%
Source Step = 92.4434%
Source Step = 92.5333%
Source Step = 92.6233%
Source Step = 92.7133%
vernier = 0.00445449
Source Step = 92.8483%
Source Step = 92.9833%
Source Step = 93.1183%
Source Step = 93.2533%
Source Step = 93.3882%
vernier = 0.00668173
Source Step = 93.584%
Source Step = 93.7864%
Source Step = 93.9889%
Source Step = 94.1914%
Source Step = 94.3939%
vernier = 0.0100226
Source Step = 94.6773%
Source Step = 94.9811%
Source Step = 95.2848%
Source Step = 95.5885%
Source Step = 95.8922%
vernier = 0.0150339
Source Step = 96.3022%
Source Step = 96.7578%
Source Step = 97.2134%
Source Step = 97.6689%
Source Step = 98.1245%
vernier = 0.0225508
Source Step = 98.7168%
Source Step = 99.4001%
Source stepping succeeded in finding the operating point.

Total elapsed time: 14.353 seconds.

Files loaded:
C:\Users\ramaz\Desktop\Circuitos II\TP-TA138-G7\Simulación\LDO\simulacion_LDO.net
C:\Users\ramaz\AppData\Local\LTspice\lib\cmp\standard.bjt
C:\Users\ramaz\Desktop\Circuitos II\TP-TA138-G7\Simulación\LDO\Modelos\irf4905.spi
C:\Users\ramaz\Desktop\Circuitos II\TP-TA138-G7\Simulación\LDO\Modelos\TL431.spi
C:\Users\ramaz\Desktop\Circuitos II\TP-TA138-G7\Simulación\LDO\Modelos\LM358.txt

