LTspice 24.0.12 for Windows
Circuit: * C:\Users\ramaz\Desktop\Circuitos II\TP-TA138-G7\Simulaci¾n\LDO\simulacion_LDO_compensado.asc
Start Time: Sat Apr 25 13:11:48 2026
Warning: Multiple definitions of model "2scr375p" Type: BJT
Warning: Multiple definitions of model "bc857b" Type: BJT
Warning: Multiple definitions of model "bc847c" Type: BJT
Warning: Multiple definitions of model "bc847b" Type: BJT
irl: both pins shorted together -- ignoring.
solver = Normal
Maximum thread count: 8
tnom = 27
temp = 27
method = modified trap
WARNING: Node N011 is floating.

Direct Newton iteration failed to find .op point.  (Use ".option noopiter" to skip.)
Starting Gmin stepping
Gmin = 10
vernier = 0.5
Gmin = 1.67772
vernier = 0.25
vernier = 0.125
Gmin = 1.20453
vernier = 0.0625
vernier = 0.0833333
vernier = 0.0416667
Gmin = 1.12594
vernier = 0.0208333
vernier = 0.0277778
vernier = 0.0138889
Gmin = 1.09327
vernier = 0.0185185
vernier = 0.00925925
Gmin = 1.06829
vernier = 0.0123457
vernier = 0.00617283
vernier = 0.00823044
Gmin = 1.0533
vernier = 0.00411522
vernier = 0.00548696
Gmin = 1.04431
vernier = 0.00274348
vernier = 0.00365797
Gmin = 1.03789
vernier = 0.00182899
vernier = 0.00243865
Gmin = 1.033
vernier = 0.00325153
vernier = 0.00162576
Gmin = 1.0286
vernier = 0.00216769
vernier = 0.00108384
vernier = 0.00144512
Gmin = 1.026
vernier = 0.00192683
vernier = 0.000963415
Gmin = 1.02341
vernier = 0.00128455
vernier = 0.000642277
Gmin = 1.02111
vernier = 0.000856369
Gmin = 1.01915
vernier = 0.00114182
vernier = 0.000570912
vernier = 0.000761216
Gmin = 1.01784
vernier = 0.00101495
vernier = 0.000507477
Gmin = 1.01661
vernier = 0.000676636
vernier = 0.000902182
vernier = 0.000451091
Gmin = 1.01535
vernier = 0.000601454
vernier = 0.000451091
Gmin = 1.01432
vernier = 0.000601454
vernier = 0.000451091
Gmin = 1.01341
vernier = 0.000601454
vernier = 0.000451091
vernier = 0.000601454
vernier = 0.00045109
Gmin = 1.01272
Gmin = 0
Gmin stepping failed

Starting source stepping with srcstepmethod=0
Source Step = 3.0303%
Source Step = 33.3333%
Source Step = 42.4242%
Source Step = 50%
Source Step = 57.5758%
Source Step = 60.612%
Source Step = 60.6416%
Source Step = 60.6712%
Source Step = 60.7008%
Source Step = 60.7304%
Source Step = 60.7599%
vernier = 0.00146484
Source Step = 60.8043%
Source Step = 60.8487%
Source Step = 60.8931%
Source Step = 60.9375%
Source Step = 60.9819%
vernier = 0.00219727
Source Step = 61.0463%
Source Step = 61.1128%
Source Step = 61.1794%
Source Step = 61.246%
Source Step = 61.3126%
vernier = 0.0032959
Source Step = 61.4058%
Source Step = 61.5057%
Source Step = 61.6056%
Source Step = 61.7054%
Source Step = 61.8053%
vernier = 0.00494385
Source Step = 61.9401%
Source Step = 62.09%
Source Step = 62.2398%
Source Step = 62.3896%
Source Step = 62.5394%
vernier = 0.00741577
Source Step = 62.7342%
Source Step = 62.9589%
Source Step = 63.1836%
Source Step = 63.4083%
Source Step = 63.633%
vernier = 0.0111237
Source Step = 63.9139%
Source Step = 64.251%
Source Step = 64.5881%
Source Step = 64.9252%
Source Step = 65.2623%
vernier = 0.0166855
Source Step = 65.6668%
Source Step = 66.1724%
Source Step = 66.678%
Source Step = 67.1836%
Source Step = 67.6892%
vernier = 0.0250282
Source Step = 68.2707%
Source Step = 69.0291%
Source Step = 69.7876%
Source Step = 70.546%
Source Step = 71.3044%
vernier = 0.0375423
Source Step = 72.1387%
Source Step = 73.2763%
Source Step = 74.414%
Source Step = 75.5516%
Source Step = 76.6893%
vernier = 0.0563135
Source Step = 77.8838%
Source Step = 79.5903%
Source Step = 81.2968%
Source Step = 83.0032%
Source Step = 84.7097%
Source Step = 86.4162%
vernier = 0.0844703
Source Step = 88.9759%
Source Step = 90.7837%
vernier = 0.00131985
Source Step = 90.8077%
Source Step = 90.8477%
Source Step = 90.8877%
Source Step = 90.9276%
Source Step = 90.9676%
Source Step = 91.0076%
Source Step = 91.0476%
Source Step = 91.0876%
Source Step = 91.1276%
Source Step = 91.1676%
Source Step = 91.2076%
Source Step = 91.2476%
Source Step = 91.2876%
Source Step = 91.3276%
Source Step = 91.3676%
Source Step = 91.4076%
Source Step = 91.4476%
Source Step = 91.4876%
Source Step = 91.5276%
Source Step = 91.5676%
Source Step = 91.6076%
Source Step = 91.6476%
Source Step = 91.6876%
Source Step = 91.7276%
Source Step = 91.7676%
Source Step = 91.8075%
Source Step = 91.8475%
Source Step = 91.8875%
Source Step = 91.9275%
Source Step = 91.9675%
Source Step = 92.0075%
Source Step = 92.0475%
Source Step = 92.0875%
Source Step = 92.1275%
Source Step = 92.1675%
Source Step = 92.2075%
Source Step = 92.2475%
Source Step = 92.2875%
Source Step = 92.3275%
Source Step = 92.3675%
Source Step = 92.4075%
Source Step = 92.4475%
Source Step = 92.4875%
Source Step = 92.5275%
Source Step = 92.5675%
Source Step = 92.6075%
Source Step = 92.6474%
Source Step = 92.6874%
Source Step = 92.7274%
Source Step = 92.7674%
Source Step = 92.8074%
Source Step = 92.8474%
Source Step = 92.8874%
Source Step = 92.9274%
Source Step = 92.9674%
Source Step = 93.0074%
Source Step = 93.0474%
Source Step = 93.0874%
Source Step = 93.1274%
Source Step = 93.1674%
Source Step = 93.2074%
Source Step = 93.2474%
Source Step = 93.2874%
Source Step = 93.3274%
Source Step = 93.3674%
Source Step = 93.4074%
Source Step = 93.4474%
Source Step = 93.4874%
Source Step = 93.5273%
Source Step = 93.5673%
Source Step = 93.6073%
Source Step = 93.6473%
Source Step = 93.6873%
Source stepping aborted.
Starting source stepping with srcstepmethod=1
Source Step = 3.0303%
Source Step = 33.3333%
Source Step = 63.6364%
Source Step = 93.9394%
Source Step = 99.003%
Source Step = 99.0326%
Source Step = 99.0621%
Source Step = 99.0917%
Source Step = 99.1213%
Source Step = 99.1509%
Source Step = 99.1805%
Source Step = 99.2101%
Source Step = 99.2397%
Source Step = 99.2693%
Source Step = 99.2989%
Source Step = 99.3285%
Source Step = 99.3581%
Source Step = 99.3877%
Source Step = 99.4173%
Source Step = 99.4469%
Source Step = 99.4764%
Source Step = 99.506%
Source Step = 99.5356%
Source Step = 99.5652%
Source Step = 99.5948%
Source Step = 99.6244%
Source Step = 99.654%
Source Step = 99.6836%
Source Step = 99.7132%
Source Step = 99.7428%
Source Step = 99.7724%
Source Step = 99.802%
Source Step = 99.8316%
Source Step = 99.8612%
Source Step = 99.8907%
Source Step = 99.9203%
Source Step = 99.9499%
Source Step = 99.9795%
Source Step = 100%
Source Step = 100%
Source Step = 100%
Source Step = 100%
Source Step = 100%
Source Step = 100%
Source Step = 100%
Source Step = 100%
Source Step = 100%
Source Step = 100%
Source Step = 100%
Source Step = 100%
Source Step = 100%
Source Step = 100%
Source Step = 100%
Source Step = 100%
Source Step = 100%
Source Step = 100%
Source Step = 100%
Source Step = 100%
Source Step = 100%
Source Step = 100%
Source Step = 100%
Source Step = 100%
Source Step = 100%
Source Step = 100%
Source Step = 100%
Source Step = 100%
Source Step = 100%
Source Step = 100%
Source Step = 100%
Source Step = 100%
Source Step = 100%
Source Step = 100%
Source Step = 100%
Source Step = 100%
Source Step = 100%
Source Step = 100%
Source Step = 100%
Source Step = 100%
Source Step = 100%
Source Step = 100%
Source Step = 100%
Source Step = 100%
Source Step = 100%
Source Step = 100%
Source Step = 100%
Source Step = 100%
Source Step = 100%
Source stepping aborted.
Pseudo Transient succeeded in finding the operating point at 1.31078 s.
Total elapsed time: 38.731 seconds.

