LTspice 24.1.5 for Windows
Circuit: C:\Users\ramaz\Desktop\Circuitos II\TP-TA138-G7\Simulación\LDO\simulacion_LDO_compensado.net
Start Time: Fri Apr 24 12:29:46 2026
solver = Normal
Maximum thread count: 12
tnom = 27
temp = 27
method = trap
WARNING: Node n007 is floating.

Direct Newton iteration failed to find .op point.  (Use ".option noopiter" to skip.)
Starting Gmin stepping
Gmin = 10
vernier = 0.5
Gmin = 1.67772
vernier = 0.25
vernier = 0.125
Gmin = 1.20453
vernier = 0.0625
vernier = 0.0833333
vernier = 0.0416667
Gmin = 1.12594
vernier = 0.0208333
vernier = 0.0277778
vernier = 0.0138889
Gmin = 1.09327
vernier = 0.0185185
vernier = 0.00925925
Gmin = 1.06829
vernier = 0.0123457
vernier = 0.00617283
vernier = 0.00823044
Gmin = 1.0533
vernier = 0.00411522
vernier = 0.00548696
Gmin = 1.04431
vernier = 0.00274348
vernier = 0.00365797
Gmin = 1.03789
vernier = 0.00182899
vernier = 0.00243865
Gmin = 1.033
vernier = 0.00325153
vernier = 0.00162576
Gmin = 1.0286
vernier = 0.00216769
vernier = 0.00108384
vernier = 0.00144512
Gmin = 1.026
vernier = 0.00192683
vernier = 0.000963415
Gmin = 1.02341
vernier = 0.00128455
vernier = 0.000642277
Gmin = 1.02111
vernier = 0.000856369
Gmin = 1.01915
vernier = 0.00114182
vernier = 0.000570912
vernier = 0.000761216
Gmin = 1.01784
vernier = 0.00101495
vernier = 0.000507477
Gmin = 1.01661
vernier = 0.000676636
vernier = 0.000902182
vernier = 0.000451091
Gmin = 1.01535
vernier = 0.000601454
vernier = 0.000451091
Gmin = 1.01432
vernier = 0.000601454
vernier = 0.000451091
Gmin = 1.01341
vernier = 0.000601454
vernier = 0.000451091
vernier = 0.000601454
vernier = 0.00045109
Gmin = 1.01272
Gmin = 0
Gmin stepping failed

Starting source stepping with srcstepmethod=0
Source Step = 3.0303%
Source Step = 33.3333%
Source Step = 63.6364%
vernier = 0.25
Source Step = 60.6238%
Source Step = 60.6534%
Source Step = 60.683%
Source Step = 60.7126%
Source Step = 60.7422%
vernier = 0.00146484
Source Step = 60.7777%
Source Step = 60.8221%
Source Step = 60.8665%
Source Step = 60.9109%
Source Step = 60.9553%
vernier = 0.00219727
Source Step = 61.0063%
Source Step = 61.0729%
Source Step = 61.1395%
Source Step = 61.2061%
Source Step = 61.2726%
vernier = 0.0032959
Source Step = 61.3459%
Source Step = 61.4458%
Source Step = 61.5456%
Source Step = 61.6455%
Source Step = 61.7454%
vernier = 0.00494385
Source Step = 61.8503%
Source Step = 62.0001%
Source Step = 62.1499%
Source Step = 62.2997%
Source Step = 62.4495%
Source Step = 62.5993%
vernier = 0.00741577
Source Step = 62.824%
Source Step = 63.0488%
Source Step = 63.2735%
Source Step = 63.4982%
Source Step = 63.7229%
vernier = 0.0111237
Source Step = 64.0488%
Source Step = 64.3858%
Source Step = 64.7229%
Source Step = 65.06%
Source Step = 65.3971%
vernier = 0.0166855
Source Step = 65.869%
Source Step = 66.3746%
Source Step = 66.8802%
Source Step = 67.3859%
Source Step = 67.8915%
vernier = 0.0250282
Source Step = 68.5741%
Source Step = 69.3325%
Source Step = 70.0909%
Source Step = 70.8494%
Source Step = 71.6078%
vernier = 0.0375423
Source Step = 72.5938%
Source Step = 73.7314%
Source Step = 74.8691%
Source Step = 76.0067%
Source Step = 77.1443%
vernier = 0.0563135
Source Step = 78.5664%
Source Step = 80.2729%
Source Step = 81.9793%
Source Step = 83.6858%
Source Step = 85.3923%
vernier = 0.0844703
Source Step = 87.44%
Source Step = 89.9998%
Source Step = 90.7837%
Source Step = 90.8237%
Source Step = 90.8637%
Source Step = 90.9036%
Source Step = 90.9436%
Source Step = 90.9836%
Source Step = 91.0236%
Source Step = 91.0636%
Source Step = 91.1036%
Source Step = 91.1436%
Source Step = 91.1836%
Source Step = 91.2236%
Source Step = 91.2636%
Source Step = 91.3036%
Source Step = 91.3436%
Source stepping aborted.
Starting source stepping with srcstepmethod=1
Source Step = 3.0303%
Source Step = 33.3333%
Source Step = 63.6364%
Source Step = 93.9394%
Source Step = 99.0089%
Source Step = 99.0385%
Source Step = 99.0681%
Source Step = 99.0977%
Source Step = 99.1272%
Source Step = 99.1568%
Source Step = 99.1864%
Source Step = 99.216%
Source Step = 99.2456%
Source Step = 99.2752%
Source Step = 99.3048%
Source Step = 99.3344%
Source Step = 99.364%
Source Step = 99.3936%
Source Step = 99.4232%
Source Step = 99.4528%
Source Step = 99.4824%
Source Step = 99.512%
Source Step = 99.5415%
Source Step = 99.5711%
Source Step = 99.6007%
Source Step = 99.6303%
Source Step = 99.6599%
Source Step = 99.6895%
Source Step = 99.7191%
Source Step = 99.7487%
Source Step = 99.7783%
Source Step = 99.8079%
Source Step = 99.8375%
Source Step = 99.8671%
Source Step = 99.8967%
Source Step = 99.9263%
Source Step = 99.9558%
Source Step = 99.9854%
Source Step = 100%
Source Step = 100%
Source Step = 100%
Source Step = 100%
Source Step = 100%
Source Step = 100%
Source Step = 100%
Source Step = 100%
Source Step = 100%
Source Step = 100%
Source Step = 100%
Source Step = 100%
Source Step = 100%
Source Step = 100%
Source Step = 100%
Source Step = 100%
Source Step = 100%
Source Step = 100%
Source Step = 100%
Source Step = 100%
Source Step = 100%
Source Step = 100%
Source Step = 100%
Source Step = 100%
Source Step = 100%
Source Step = 100%
Source Step = 100%
Source Step = 100%
Source Step = 100%
Source Step = 100%
Source Step = 100%
Source Step = 100%
Source Step = 100%
Source Step = 100%
Source Step = 100%
Source Step = 100%
Source Step = 100%
Source Step = 100%
Source Step = 100%
Source Step = 100%
Source Step = 100%
Source Step = 100%
Source Step = 100%
Source Step = 100%
Source Step = 100%
Source Step = 100%
Source Step = 100%
Source Step = 100%
Source Step = 100%
Source Step = 100%
Source Step = 100%
Source Step = 100%
Source Step = 100%
Source Step = 100%
Source Step = 100%
Source Step = 100%
Source Step = 100%
Source Step = 100%
Source stepping aborted.
Pseudo Transient succeeded in finding the operating point at 328.45 ms.
Total elapsed time: 10.751 seconds.

Files loaded:
C:\Users\ramaz\Desktop\Circuitos II\TP-TA138-G7\Simulación\LDO\simulacion_LDO_compensado.net
C:\Users\ramaz\AppData\Local\LTspice\lib\cmp\standard.bjt
C:\Users\ramaz\Desktop\Circuitos II\TP-TA138-G7\Simulación\LDO\Modelos\irf4905.spi
C:\Users\ramaz\Desktop\Circuitos II\TP-TA138-G7\Simulación\LDO\Modelos\TL431.spi
C:\Users\ramaz\Desktop\Circuitos II\TP-TA138-G7\Simulación\LDO\Modelos\LM358.txt
C:\Users\ramaz\Desktop\Circuitos II\TP-TA138-G7\Simulación\LDO\Modelos\LM324.txt

