LTspice 24.1.5 for Windows
Circuit: C:\users\sebastian\Desktop\FIUBA-2do Cuatrimestre\Taller de Diseño Electrónico TA138\TP_Taller_de_Diseño_ TA138_G7\Simulación\LDO\simulacion_LDO.net
Start Time: Sat Apr 11 17:32:23 2026
solver = Normal
Maximum thread count: 4
tnom = 27
temp = 27
method = trap
