LTspice 24.1.5 for Windows
Circuit: C:\Users\ramaz\Desktop\Circuitos II\TP-TA138-G7\Simulación\LDO\simulacion_LDO_Bode_lazo_tension.net
Start Time: Tue Apr 21 17:26:31 2026
solver = Normal
Maximum thread count: 12
tnom = 27
temp = 27
method = trap
Direct Newton iteration failed to find .op point.  (Use ".option noopiter" to skip.)
Starting Gmin stepping
Gmin = 10
vernier = 0.5
Gmin = 1.67772
vernier = 0.25
vernier = 0.125
Gmin = 1.20453
vernier = 0.0625
vernier = 0.03125
Gmin = 1.14054
vernier = 0.0416667
vernier = 0.0208333
vernier = 0.0277778
Gmin = 1.08658
vernier = 0.0138889
vernier = 0.0185185
vernier = 0.00925925
Gmin = 1.07037
vernier = 0.0123457
vernier = 0.00617283
Gmin = 1.05481
vernier = 0.00823044
vernier = 0.00411522
vernier = 0.00548696
Gmin = 1.04509
vernier = 0.00274348
vernier = 0.00365797
Gmin = 1.03866
vernier = 0.00182899
vernier = 0.00243865
Gmin = 1.03377
vernier = 0.00325153
vernier = 0.00162576
Gmin = 1.02937
vernier = 0.00216769
vernier = 0.00108384
Gmin = 1.02658
vernier = 0.00144512
vernier = 0.00192683
vernier = 0.000963415
Gmin = 1.02387
vernier = 0.00128455
vernier = 0.000642277
Gmin = 1.02149
vernier = 0.000856369
Gmin = 1.01957
vernier = 0.00114182
vernier = 0.000570912
vernier = 0.000761216
Gmin = 1.01824
vernier = 0.00101495
vernier = 0.000507477
Gmin = 1.01695
vernier = 0.000676636
vernier = 0.000902182
vernier = 0.000451091
Gmin = 1.01567
vernier = 0.000601454
vernier = 0.000451091
Gmin = 1.01464
vernier = 0.000601454
vernier = 0.000451091
Gmin = 1.01373
vernier = 0.000601454
vernier = 0.000451091
vernier = 0.000601454
vernier = 0.00045109
Gmin = 1.01304
Gmin = 0
Gmin stepping failed

Starting source stepping with srcstepmethod=0
Source Step = 3.0303%
Source Step = 33.3333%
Source Step = 63.6364%
vernier = 0.25
Source Step = 68.1818%
Source Step = 74.4318%
vernier = 0.015625
Source Step = 74.2661%
Source Step = 74.2957%
Source Step = 74.3253%
Source Step = 74.3549%
Source Step = 74.3845%
vernier = 0.00146484
Source Step = 74.4185%
Source Step = 74.4629%
Source Step = 74.5073%
Source Step = 74.5517%
Source Step = 74.5961%
vernier = 0.00219727
Source Step = 74.6449%
Source Step = 74.7115%
Source Step = 74.7781%
Source Step = 74.8446%
Source Step = 74.9112%
vernier = 0.0032959
Source Step = 74.9811%
Source Step = 75.081%
Source Step = 75.1809%
Source Step = 75.2808%
Source Step = 75.3806%
Source Step = 75.4805%
vernier = 0.00494385
Source Step = 75.6303%
Source Step = 75.7801%
Source Step = 75.93%
Source Step = 76.0798%
Source Step = 76.2296%
vernier = 0.00741577
Source Step = 76.4468%
Source Step = 76.6715%
Source Step = 76.8963%
Source Step = 77.121%
Source Step = 77.3457%
vernier = 0.0111237
Source Step = 77.6603%
Source Step = 77.9974%
Source Step = 78.3345%
Source Step = 78.6715%
Source Step = 79.0086%
vernier = 0.0166855
Source Step = 79.4637%
Source Step = 79.9693%
Source Step = 80.4749%
Source Step = 80.9805%
Source Step = 81.4862%
vernier = 0.0250282
Source Step = 82.1435%
Source Step = 82.9019%
Source Step = 83.6603%
Source Step = 84.4188%
Source Step = 85.1772%
vernier = 0.0375423
Source Step = 86.1252%
Source Step = 87.2629%
Source Step = 88.4005%
Source Step = 89.5382%
Source Step = 90.6758%
vernier = 0.0563135
Source Step = 92.041%
Source Step = 93.7475%
Source Step = 95.4539%
Source Step = 97.1604%
Source Step = 98.8669%
vernier = 0.0844703
Source stepping succeeded in finding the operating point.

Total elapsed time: 3.510 seconds.

Files loaded:
C:\Users\ramaz\Desktop\Circuitos II\TP-TA138-G7\Simulación\LDO\simulacion_LDO_Bode_lazo_tension.net
C:\Users\ramaz\AppData\Local\LTspice\lib\cmp\standard.bjt
C:\Users\ramaz\Desktop\Circuitos II\TP-TA138-G7\Simulación\LDO\Modelos\irf4905.spi
C:\Users\ramaz\Desktop\Circuitos II\TP-TA138-G7\Simulación\LDO\Modelos\TL431.spi
C:\Users\ramaz\Desktop\Circuitos II\TP-TA138-G7\Simulación\LDO\Modelos\LM358.txt

