LTspice 24.1.5 for Windows
Circuit: C:\Users\ramaz\Desktop\Circuitos II\TP-TA138-G7\Simulación\LDO\simulacion_LDO_Bode_lazo_tension.net
Start Time: Wed Apr 22 20:59:38 2026
solver = Normal
Maximum thread count: 12
tnom = 27
temp = 27
method = trap
Direct Newton iteration failed to find .op point.  (Use ".option noopiter" to skip.)
Starting Gmin stepping
Gmin = 10
vernier = 0.5
Gmin = 1.67772
vernier = 0.25
vernier = 0.125
Gmin = 1.20453
vernier = 0.0625
vernier = 0.03125
Gmin = 1.14054
vernier = 0.0416667
vernier = 0.0208333
vernier = 0.0277778
Gmin = 1.08658
vernier = 0.0138889
vernier = 0.0185185
vernier = 0.00925925
Gmin = 1.07037
vernier = 0.0123457
vernier = 0.00617283
Gmin = 1.05481
vernier = 0.00823044
vernier = 0.00411522
vernier = 0.00548696
Gmin = 1.04509
vernier = 0.00274348
vernier = 0.00365797
Gmin = 1.03866
vernier = 0.00182899
vernier = 0.00243865
Gmin = 1.03377
vernier = 0.00325153
vernier = 0.00162576
Gmin = 1.02937
vernier = 0.00216769
vernier = 0.00108384
Gmin = 1.02658
vernier = 0.00144512
vernier = 0.00192683
vernier = 0.000963415
Gmin = 1.02387
vernier = 0.00128455
vernier = 0.000642277
Gmin = 1.02149
vernier = 0.000856369
Gmin = 1.01957
vernier = 0.00114182
vernier = 0.000570912
vernier = 0.000761216
Gmin = 1.01824
vernier = 0.00101495
vernier = 0.000507477
Gmin = 1.01695
vernier = 0.000676636
vernier = 0.000902182
vernier = 0.000451091
Gmin = 1.01567
vernier = 0.000601454
vernier = 0.000451091
Gmin = 1.01464
vernier = 0.000601454
vernier = 0.000451091
Gmin = 1.01373
vernier = 0.000601454
vernier = 0.000451091
vernier = 0.000601454
vernier = 0.00045109
Gmin = 1.01304
Gmin = 0
Gmin stepping failed

Starting source stepping with srcstepmethod=0
Source Step = 3.0303%
Source Step = 33.3333%
Source Step = 38.66%
Source Step = 38.7784%
Source Step = 38.8968%
Source Step = 39.0152%
Source Step = 39.1335%
vernier = 0.00585938
Source Step = 39.2578%
Source Step = 39.4354%
Source Step = 39.6129%
Source Step = 39.7905%
Source Step = 39.968%
Source Step = 40.1456%
vernier = 0.00878906
Source Step = 40.4119%
Source Step = 40.6783%
Source Step = 40.9446%
Source Step = 41.2109%
Source Step = 41.4773%
vernier = 0.0131836
Source Step = 41.8635%
Source Step = 42.263%
Source Step = 42.6625%
Source Step = 43.062%
Source Step = 43.4615%
vernier = 0.0197754
Source Step = 44.0208%
Source Step = 44.62%
Source Step = 45.2193%
Source Step = 45.8185%
Source Step = 46.4178%
vernier = 0.0296631
Source Step = 47.2268%
Source Step = 48.1257%
Source Step = 49.0245%
Source Step = 49.9234%
Source Step = 50.8223%
vernier = 0.0444946
Source Step = 51.9909%
Source Step = 53.3392%
Source Step = 54.6875%
Source Step = 56.0358%
Source Step = 57.3841%
vernier = 0.0667419
Source Step = 59.0695%
Source Step = 61.092%
Source Step = 63.1145%
Source Step = 65.137%
Source Step = 67.1595%
vernier = 0.100113
Source Step = 69.5865%
Source Step = 72.6202%
Source Step = 74.4452%
Source Step = 74.4926%
Source Step = 74.54%
Source Step = 74.5874%
Source Step = 74.6348%
Source Step = 74.6822%
vernier = 0.0023464
Source Step = 74.7438%
Source Step = 74.8149%
Source Step = 74.886%
Source Step = 74.9571%
Source Step = 75.0282%
vernier = 0.00351959
Source Step = 75.1171%
Source Step = 75.2237%
Source Step = 75.3304%
Source Step = 75.437%
Source Step = 75.5437%
vernier = 0.00527939
Source Step = 75.6717%
Source Step = 75.8317%
Source Step = 75.9916%
Source Step = 76.1516%
Source Step = 76.3116%
vernier = 0.00791909
Source Step = 76.4956%
Source Step = 76.7356%
Source Step = 76.9755%
Source Step = 77.2155%
Source Step = 77.4555%
vernier = 0.0118786
Source Step = 77.7194%
Source Step = 78.0794%
Source Step = 78.4394%
Source Step = 78.7993%
Source Step = 79.1593%
vernier = 0.0178179
Source Step = 79.5372%
Source Step = 80.0772%
Source Step = 80.6171%
Source Step = 81.1571%
Source Step = 81.697%
Source Step = 82.2369%
vernier = 0.0267269
Source Step = 83.0468%
Source Step = 83.8567%
Source Step = 84.6666%
Source Step = 85.4766%
Source Step = 86.2865%
vernier = 0.0400904
Source Step = 87.4608%
Source Step = 88.6757%
Source Step = 89.8905%
Source Step = 91.1054%
Source Step = 92.3203%
vernier = 0.0601356
Source Step = 94.0211%
Source Step = 95.8434%
Source Step = 97.6657%
Source Step = 99.4879%
Source stepping succeeded in finding the operating point.

Total elapsed time: 5.096 seconds.

Files loaded:
C:\Users\ramaz\Desktop\Circuitos II\TP-TA138-G7\Simulación\LDO\simulacion_LDO_Bode_lazo_tension.net
C:\Users\ramaz\AppData\Local\LTspice\lib\cmp\standard.bjt
C:\Users\ramaz\Desktop\Circuitos II\TP-TA138-G7\Simulación\LDO\Modelos\irf4905.spi
C:\Users\ramaz\Desktop\Circuitos II\TP-TA138-G7\Simulación\LDO\Modelos\TL431.spi
C:\Users\ramaz\Desktop\Circuitos II\TP-TA138-G7\Simulación\LDO\Modelos\LM358.txt

