LTspice 24.0.12 for Windows
Circuit: * C:\Users\ramaz\Desktop\Circuitos II\TP-TA138-G7\Simulaci鏮\LDO\simulacion_LDO.asc
Start Time: Sun Apr 12 14:40:05 2026
Warning: Multiple definitions of model "2scr375p" Type: BJT
Warning: Multiple definitions of model "bc857b" Type: BJT
Warning: Multiple definitions of model "bc847c" Type: BJT
Warning: Multiple definitions of model "bc847b" Type: BJT
irl: both pins shorted together -- ignoring.
solver = Normal
Maximum thread count: 8
tnom = 27
temp = 27
method = modified trap
Direct Newton iteration failed to find .op point.  (Use ".option noopiter" to skip.)
Starting Gmin stepping
Gmin = 10
Gmin = 1.07374
Gmin = 0.115292
Gmin = 0.0123794
Gmin = 0.00132923
Gmin = 0.000142725
vernier = 0.5
Gmin = 2.66058e-05
vernier = 0.25
vernier = 0.125
vernier = 0.0625
Gmin = 2.3535e-05
vernier = 0.0833333
vernier = 0.111111
Gmin = 1.88605e-05
vernier = 0.148148
vernier = 0.197531
Gmin = 1.33094e-05
vernier = 0.263374
Gmin = 7.60362e-06
vernier = 0.351165
vernier = 0.175583
vernier = 0.0877914
Gmin = 5.52995e-06
vernier = 0.0438957
vernier = 0.0219478
vernier = 0.0109739
vernier = 0.00548696
vernier = 0.00274348
vernier = 0.00137174
vernier = 0.00068587
vernier = 0.000514403
Gmin = 5.58998e-06
Gmin = 0
Gmin stepping failed

Starting source stepping with srcstepmethod=0
Source Step = 3.0303%
Source Step = 33.3333%
Source Step = 63.6364%
vernier = 0.25
Source Step = 62.3106%
Source Step = 64.2045%
Source Step = 66.0985%
Source Step = 67.9924%
Source Step = 69.8864%
vernier = 0.09375
Source Step = 72.5379%
Source Step = 74.5443%
vernier = 0.00146484
Source Step = 74.5709%
Source Step = 74.6153%
Source Step = 74.6597%
Source Step = 74.7041%
Source Step = 74.7485%
vernier = 0.00219727
Source Step = 74.8039%
Source Step = 74.8705%
Source Step = 74.9371%
Source Step = 75.0037%
Source Step = 75.0703%
vernier = 0.0032959
Source Step = 75.1502%
Source Step = 75.2501%
Source Step = 75.3499%
Source Step = 75.4498%
Source Step = 75.5497%
vernier = 0.00494385
Source Step = 75.6645%
Source Step = 75.8144%
Source Step = 75.9642%
Source Step = 76.114%
Source Step = 76.2638%
vernier = 0.00741577
Source Step = 76.4286%
Source Step = 76.6533%
Source Step = 76.878%
Source Step = 77.1028%
Source Step = 77.3275%
vernier = 0.0111237
Source Step = 77.5634%
Source Step = 77.9005%
Source Step = 78.2376%
Source Step = 78.5747%
Source Step = 78.9118%
Source Step = 79.2488%
vernier = 0.0166855
Source Step = 79.7545%
Source Step = 80.2601%
Source Step = 80.7657%
Source Step = 81.2713%
Source Step = 81.7769%
vernier = 0.0250282
Source Step = 82.5101%
Source Step = 83.2685%
Source Step = 84.0269%
Source Step = 84.7854%
Source Step = 85.5438%
vernier = 0.0375423
Source Step = 86.6056%
Source Step = 87.7433%
Source Step = 88.8809%
Source Step = 90.0186%
Source Step = 91.1562%
vernier = 0.0563135
Source Step = 92.692%
Source Step = 94.3985%
Source Step = 96.105%
Source Step = 97.8114%
Source Step = 99.5179%
Source stepping succeeded in finding the operating point.

Total elapsed time: 0.501 seconds.

