LTspice 24.0.12 for Windows
Circuit: * C:\Users\ramaz\Desktop\Circuitos II\TP-TA138-G7\Simulaci鏮\LDO\simulacion_LDO_lazo_corriente.asc
Start Time: Sat Apr 25 13:45:38 2026
Warning: Multiple definitions of model "2scr375p" Type: BJT
Warning: Multiple definitions of model "bc857b" Type: BJT
Warning: Multiple definitions of model "bc847c" Type: BJT
Warning: Multiple definitions of model "bc847b" Type: BJT
irl: both pins shorted together -- ignoring.
solver = Normal
Maximum thread count: 8
tnom = 27
temp = 27
method = modified trap
Direct Newton iteration failed to find .op point.  (Use ".option noopiter" to skip.)
Starting Gmin stepping
Gmin = 10
vernier = 0.5
Gmin = 1.67772
vernier = 0.25
vernier = 0.125
Gmin = 1.20453
vernier = 0.0625
vernier = 0.03125
Gmin = 1.14054
vernier = 0.0416667
vernier = 0.0208333
vernier = 0.0277778
Gmin = 1.08658
vernier = 0.0138889
vernier = 0.0185185
vernier = 0.00925925
Gmin = 1.07037
vernier = 0.0123457
vernier = 0.00617283
Gmin = 1.05481
vernier = 0.00823044
vernier = 0.00411522
vernier = 0.00548696
Gmin = 1.04509
vernier = 0.00274348
vernier = 0.00365797
Gmin = 1.03866
vernier = 0.00182899
vernier = 0.00243865
Gmin = 1.03377
vernier = 0.00325153
vernier = 0.00162576
Gmin = 1.02937
vernier = 0.00216769
vernier = 0.00108384
Gmin = 1.02658
vernier = 0.00144512
vernier = 0.00192683
vernier = 0.000963415
Gmin = 1.02387
vernier = 0.00128455
vernier = 0.000642277
Gmin = 1.02149
vernier = 0.000856369
Gmin = 1.01957
vernier = 0.00114182
vernier = 0.000570912
vernier = 0.000761216
Gmin = 1.01824
vernier = 0.00101495
vernier = 0.000507477
Gmin = 1.01695
vernier = 0.000676636
vernier = 0.000902182
vernier = 0.000451091
Gmin = 1.01567
vernier = 0.000601454
vernier = 0.000451091
Gmin = 1.01464
vernier = 0.000601454
vernier = 0.000451091
Gmin = 1.01373
vernier = 0.000601454
vernier = 0.000451091
vernier = 0.000601454
vernier = 0.00045109
Gmin = 1.01304
Gmin = 0
Gmin stepping failed

Starting source stepping with srcstepmethod=0
Source Step = 3.0303%
Source Step = 33.3333%
Source Step = 63.6364%
vernier = 0.25
Source Step = 60.6238%
Source Step = 60.6534%
Source Step = 60.683%
Source Step = 60.7126%
Source Step = 60.7422%
vernier = 0.00146484
Source Step = 60.7777%
Source Step = 60.8221%
Source Step = 60.8665%
Source Step = 60.9109%
Source Step = 60.9553%
vernier = 0.00219727
Source Step = 61.0063%
Source Step = 61.0729%
Source Step = 61.1395%
Source Step = 61.2061%
Source Step = 61.2726%
vernier = 0.0032959
Source Step = 61.3459%
Source Step = 61.4458%
Source Step = 61.5456%
Source Step = 61.6455%
Source Step = 61.7454%
vernier = 0.00494385
Source Step = 61.8503%
Source Step = 62.0001%
Source Step = 62.1499%
Source Step = 62.2997%
Source Step = 62.4495%
Source Step = 62.5993%
vernier = 0.00741577
Source Step = 62.824%
Source Step = 63.0488%
Source Step = 63.2735%
Source Step = 63.4982%
Source Step = 63.7229%
vernier = 0.0111237
Source Step = 64.0488%
Source Step = 64.3858%
Source Step = 64.7229%
Source Step = 65.06%
Source Step = 65.3971%
vernier = 0.0166855
Source Step = 65.869%
Source Step = 66.3746%
Source Step = 66.8802%
Source Step = 67.3859%
Source Step = 67.8915%
vernier = 0.0250282
Source Step = 68.5741%
Source Step = 69.3325%
Source Step = 70.0909%
Source Step = 70.8494%
Source Step = 71.6078%
vernier = 0.0375423
Source Step = 72.5938%
Source Step = 73.7314%
Source Step = 74.8691%
Source Step = 76.0067%
Source Step = 77.1443%
vernier = 0.0563135
Source Step = 78.5664%
Source Step = 80.2729%
Source Step = 81.9793%
Source Step = 83.6858%
Source Step = 85.3923%
vernier = 0.0844703
Source Step = 87.44%
Source Step = 89.9998%
Source Step = 92.5595%
Source Step = 95.1192%
Source Step = 97.6789%
vernier = 0.126705
Source stepping succeeded in finding the operating point.

Total elapsed time: 7.445 seconds.

