LTspice 24.1.5 for Windows
Circuit: C:\Users\ramaz\Desktop\Circuitos II\TP-TA138-G7\Simulación\LDO\simulacion_LDO_compensado.net
Start Time: Wed Apr 22 23:04:37 2026
solver = Normal
Maximum thread count: 12
tnom = 27
temp = 27
method = trap
Direct Newton iteration failed to find .op point.  (Use ".option noopiter" to skip.)
Starting Gmin stepping
Gmin = 10
vernier = 0.5
Gmin = 1.67772
vernier = 0.25
vernier = 0.125
Gmin = 1.20453
vernier = 0.0625
vernier = 0.0833333
vernier = 0.0416667
Gmin = 1.12594
vernier = 0.0208333
vernier = 0.0277778
vernier = 0.0138889
Gmin = 1.09327
vernier = 0.0185185
vernier = 0.00925925
Gmin = 1.06829
vernier = 0.0123457
vernier = 0.00617283
vernier = 0.00823044
Gmin = 1.0533
vernier = 0.00411522
vernier = 0.00548696
Gmin = 1.04431
vernier = 0.00274348
vernier = 0.00365797
Gmin = 1.03789
vernier = 0.00182899
vernier = 0.00243865
Gmin = 1.033
vernier = 0.00325153
vernier = 0.00162576
Gmin = 1.0286
vernier = 0.00216769
vernier = 0.00108384
vernier = 0.00144512
Gmin = 1.026
vernier = 0.00192683
vernier = 0.000963415
Gmin = 1.02341
vernier = 0.00128455
vernier = 0.000642277
Gmin = 1.02111
vernier = 0.000856369
Gmin = 1.01915
vernier = 0.00114182
vernier = 0.000570912
vernier = 0.000761216
Gmin = 1.01784
vernier = 0.000570912
Gmin = 0
Trouble finding operating point....skipping operating point for Transient analysis.

Simulation stopped by user.
Total elapsed time: 2.779 seconds.

Files loaded:
C:\Users\ramaz\Desktop\Circuitos II\TP-TA138-G7\Simulación\LDO\simulacion_LDO_compensado.net
C:\Users\ramaz\AppData\Local\LTspice\lib\cmp\standard.bjt
C:\Users\ramaz\Desktop\Circuitos II\TP-TA138-G7\Simulación\LDO\Modelos\irf4905.spi
C:\Users\ramaz\Desktop\Circuitos II\TP-TA138-G7\Simulación\LDO\Modelos\TL431.spi
C:\Users\ramaz\Desktop\Circuitos II\TP-TA138-G7\Simulación\LDO\Modelos\LM358.txt
C:\Users\ramaz\Desktop\Circuitos II\TP-TA138-G7\Simulación\LDO\Modelos\LM324.txt

