LTspice 24.0.12 for Windows
Circuit: * C:\Users\ramaz\Desktop\Circuitos II\TP-TA138-G7\Simulaci鏮\LDO\simulacion_LDO.asc
Start Time: Fri Apr 10 21:05:13 2026
Warning: Multiple definitions of model "2scr375p" Type: BJT
Warning: Multiple definitions of model "bc857b" Type: BJT
Warning: Multiple definitions of model "bc847c" Type: BJT
Warning: Multiple definitions of model "bc847b" Type: BJT
solver = Normal
Maximum thread count: 8
tnom = 27
temp = 27
method = modified trap
WARNING: Node NC_02 is floating.
WARNING: Node NC_04 is floating.

WARNING: Less than two connections to node nc_01.  This node is used by r31.
WARNING: Less than two connections to node nc_02.  This node is used by r31.
WARNING: Less than two connections to node nc_03.  This node is used by v3.
WARNING: Less than two connections to node nc_04.  This node is used by v3.
Direct Newton iteration failed to find .op point.  (Use ".option noopiter" to skip.)
Starting Gmin stepping
Gmin = 10
vernier = 0.5
Gmin = 1.67772
vernier = 0.25
vernier = 0.125
Gmin = 1.20453
vernier = 0.0625
vernier = 0.0833333
vernier = 0.0416667
Gmin = 1.12594
vernier = 0.0208333
vernier = 0.0277778
vernier = 0.0138889
Gmin = 1.09327
vernier = 0.0185185
vernier = 0.00925925
Gmin = 1.06829
vernier = 0.0123457
vernier = 0.00617283
vernier = 0.00823044
Gmin = 1.0533
vernier = 0.00411522
vernier = 0.00548696
Gmin = 1.04431
vernier = 0.00274348
vernier = 0.00365797
Gmin = 1.03789
vernier = 0.00182899
vernier = 0.00243865
Gmin = 1.033
vernier = 0.00325153
vernier = 0.00162576
Gmin = 1.0286
vernier = 0.00216769
vernier = 0.00108384
vernier = 0.00144512
Gmin = 1.026
vernier = 0.00192683
vernier = 0.000963415
Gmin = 1.02341
vernier = 0.00128455
vernier = 0.000642277
Gmin = 1.02111
vernier = 0.000856369
Gmin = 1.01915
vernier = 0.00114182
vernier = 0.000570912
vernier = 0.000761216
Gmin = 1.01784
vernier = 0.00101495
vernier = 0.000507477
Gmin = 1.01661
vernier = 0.000676636
vernier = 0.000902182
vernier = 0.000451091
Gmin = 1.01535
vernier = 0.000601454
vernier = 0.000451091
Gmin = 1.01432
vernier = 0.000601454
vernier = 0.000451091
Gmin = 1.01341
vernier = 0.000601454
vernier = 0.000451091
vernier = 0.000601454
vernier = 0.00045109
Gmin = 1.01272
Gmin = 0
Gmin stepping failed

Starting source stepping with srcstepmethod=0
Source Step = 3.0303%
Source Step = 33.3333%
Source Step = 63.6364%
vernier = 0.25
Source Step = 60.6889%
Source Step = 60.8073%
Source Step = 60.9257%
Source Step = 61.044%
Source Step = 61.1624%
vernier = 0.00585938
Source Step = 61.3163%
Source Step = 61.4938%
Source Step = 61.6714%
Source Step = 61.849%
Source Step = 62.0265%
vernier = 0.00878906
Source Step = 62.2485%
Source Step = 62.5148%
Source Step = 62.7811%
Source Step = 63.0475%
Source Step = 63.3138%
vernier = 0.0131836
Source Step = 63.6334%
Source Step = 64.0329%
Source Step = 64.4324%
Source Step = 64.8319%
Source Step = 65.2314%
vernier = 0.0197754
Source Step = 65.6908%
Source Step = 66.2901%
Source Step = 66.8894%
Source Step = 67.4886%
Source Step = 68.0879%
vernier = 0.0296631
Source Step = 68.747%
Source Step = 69.6459%
Source Step = 70.5448%
Source Step = 71.4437%
Source Step = 72.3426%
vernier = 0.0444946
Source Step = 73.2864%
Source Step = 74.6347%
Source Step = 74.7021%
Source Step = 74.7864%
Source Step = 74.8707%
Source Step = 74.9549%
Source Step = 75.0392%
vernier = 0.00417137
Source Step = 75.1403%
Source Step = 75.2667%
Source Step = 75.3931%
Source Step = 75.5196%
Source Step = 75.646%
vernier = 0.00625706
Source Step = 75.7913%
Source Step = 75.9809%
Source Step = 76.1705%
Source Step = 76.3601%
Source Step = 76.5498%
vernier = 0.00938559
Source Step = 76.7583%
Source Step = 77.0427%
Source Step = 77.3271%
Source Step = 77.6116%
Source Step = 77.896%
vernier = 0.0140784
Source Step = 78.1946%
Source Step = 78.6212%
Source Step = 79.0478%
Source Step = 79.4745%
Source Step = 79.9011%
Source Step = 80.3277%
vernier = 0.0211176
Source Step = 80.9676%
Source Step = 81.6075%
Source Step = 82.2475%
Source Step = 82.8874%
Source Step = 83.5273%
vernier = 0.0316764
Source Step = 84.4552%
Source Step = 85.4151%
Source Step = 86.375%
Source Step = 87.3349%
Source Step = 88.2948%
vernier = 0.0475145
Source Step = 89.6386%
Source Step = 91.0784%
Source Step = 91.4204%
Source Step = 91.5104%
Source Step = 91.6004%
Source Step = 91.6904%
Source Step = 91.7804%
Source Step = 91.8704%
Source Step = 91.9603%
Source Step = 92.0503%
Source Step = 92.1403%
Source Step = 92.2303%
Source Step = 92.3203%
Source Step = 92.4103%
Source Step = 92.5003%
Source Step = 92.5903%
Source Step = 92.6803%
Source Step = 92.7703%
Source Step = 92.8602%
Source Step = 92.9502%
Source Step = 93.0402%
Source Step = 93.1302%
Source Step = 93.2202%
Source Step = 93.3102%
Source Step = 93.4002%
Source Step = 93.4902%
Source Step = 93.5802%
Source Step = 93.6702%
Source Step = 93.7601%
Source Step = 93.8501%
Source Step = 93.9401%
Source Step = 94.0301%
Source Step = 94.1201%
Source Step = 94.2101%
Source Step = 94.3001%
Source Step = 94.3901%
Source Step = 94.4801%
Source Step = 94.57%
Source Step = 94.66%
Source Step = 94.75%
Source Step = 94.84%
Source Step = 94.93%
Source Step = 95.02%
Source Step = 95.11%
Source Step = 95.2%
Source Step = 95.29%
Source Step = 95.38%
Source Step = 95.4699%
Source Step = 95.5599%
Source Step = 95.6499%
Source Step = 95.7399%
Source Step = 95.8299%
Source Step = 95.9199%
Source Step = 96.0099%
Source Step = 96.0999%
Source Step = 96.1899%
Source Step = 96.2799%
Source Step = 96.3698%
Source Step = 96.4598%
Source Step = 96.5498%
Source Step = 96.6398%
Source Step = 96.7298%
Source Step = 96.8198%
Source Step = 96.9098%
Source Step = 96.9998%
Source Step = 97.0898%
Source Step = 97.1797%
Source Step = 97.2697%
Source Step = 97.3597%
Source Step = 97.4497%
Source Step = 97.5397%
Source Step = 97.6297%
Source Step = 97.7197%
Source Step = 97.8097%
Source Step = 97.8997%
Source Step = 97.9897%
Source Step = 98.0796%
Source Step = 98.1696%
Source Step = 98.2596%
Source Step = 98.3496%
Source Step = 98.4396%
Source Step = 98.5296%
Source Step = 98.6196%
Source Step = 98.7096%
Source Step = 98.7996%
Source Step = 98.8896%
Source Step = 98.9795%
Source Step = 99.0695%
Source Step = 99.1595%
Source Step = 99.2495%
Source Step = 99.3395%
Source Step = 99.4295%
Source Step = 99.5195%
Source Step = 99.6095%
Source Step = 99.6995%
Source Step = 99.7894%
Source Step = 99.8794%
Source Step = 99.9694%
Source Step = 100%
Source Step = 100%
Source Step = 100%
Source Step = 100%
Source Step = 100%
Source Step = 100%
Source Step = 100%
Source Step = 100%
Source Step = 100%
Source Step = 100%
Source Step = 100%
Source Step = 100%
Source Step = 100%
Source Step = 100%
Source Step = 100%
Source Step = 100%
Source Step = 100%
Source Step = 100%
Source Step = 100%
Source Step = 100%
Source Step = 100%
Source Step = 100%
Source Step = 100%
Source Step = 100%
Source Step = 100%
Source Step = 100%
Source Step = 100%
Source Step = 100%
Source Step = 100%
Source Step = 100%
Source Step = 100%
Source Step = 100%
Source Step = 100%
Source Step = 100%
Source Step = 100%
Source Step = 100%
Source Step = 100%
Source Step = 100%
Source Step = 100%
Source Step = 100%
Source Step = 100%
Source Step = 100%
Source Step = 100%
Source Step = 100%
Source Step = 100%
Source Step = 100%
Source Step = 100%
Source Step = 100%
Source Step = 100%
Source Step = 100%
Source Step = 100%
Source Step = 100%
Source Step = 100%
Source Step = 100%
Source Step = 100%
Source Step = 100%
Source Step = 100%
Source Step = 100%
Source Step = 100%
Source Step = 100%
Source Step = 100%
Source Step = 100%
Source Step = 100%
Source Step = 100%
Source Step = 100%
Source Step = 100%
Source Step = 100%
Source Step = 100%
Source Step = 100%
Source Step = 100%
Source Step = 100%
Source Step = 100%
Source Step = 100%
Source Step = 100%
Source Step = 100%
Source Step = 100%
Source Step = 100%
Source Step = 100%
Source Step = 100%
Source Step = 100%
Source Step = 100%
Source Step = 100%
Source Step = 100%
Source Step = 100%
Source Step = 100%
Source Step = 100%
Source Step = 100%
Source Step = 100%
Source Step = 100%
Source Step = 100%
Source Step = 100%
Source Step = 100%
Source Step = 100%
Source Step = 100%
Source Step = 100%
Source Step = 100%
Source Step = 100%
Source Step = 100%
Source Step = 100%
Source Step = 100%
Source Step = 100%
Source Step = 100%
Source Step = 100%
Source Step = 100%
Source Step = 100%
Source Step = 100%
Source Step = 100%
Source Step = 100%
Source Step = 100%
Source Step = 100%
Source Step = 100%
Source Step = 100%
Source Step = 100%
Source Step = 100%
Source Step = 100%
Source Step = 100%
Source Step = 100%
Source Step = 100%
Source Step = 100%
Source Step = 100%
Source Step = 100%
Source Step = 100%
Source Step = 100%
Source Step = 100%
Source Step = 100%
Source Step = 100%
Source Step = 100%
Source Step = 100%
Source Step = 100%
Source Step = 100%
Source Step = 100%
Source Step = 100%
Source Step = 100%
Source Step = 100%
Source Step = 100%
Source Step = 100%
Source Step = 100%
Source Step = 100%
Source Step = 100%
Source Step = 100%
Source Step = 100%
Source Step = 100%
Source Step = 100%
Source Step = 100%
Source Step = 100%
Source Step = 100%
Source Step = 100%
Source Step = 100%
Source Step = 100%
Source Step = 100%
Source Step = 100%
Source Step = 100%
Source Step = 100%
Source Step = 100%
Source Step = 100%
Source Step = 100%
Source Step = 100%
Source Step = 100%
Source Step = 100%
Source Step = 100%
Source Step = 100%
Source Step = 100%
Source Step = 100%
Source Step = 100%
Source Step = 100%
Source Step = 100%
Source Step = 100%
Source Step = 100%
Source Step = 100%
Source Step = 100%
Source Step = 100%
Source Step = 100%
Source Step = 100%
Source Step = 100%
Source Step = 100%
Source Step = 100%
Source Step = 100%
Source Step = 100%
Source Step = 100%
Source Step = 100%
Source Step = 100%
Source Step = 100%
Source Step = 100%
Source Step = 100%
Source Step = 100%
Source Step = 100%
Source Step = 100%
Source Step = 100%
Source Step = 100%
Source Step = 100%
Source Step = 100%
Source Step = 100%
Source Step = 100%
Source Step = 100%
Source Step = 100%
Source Step = 100%
Source Step = 100%
Source Step = 100%
Source Step = 100%
Source Step = 100%
Source Step = 100%
Source Step = 100%
Source Step = 100%
Source Step = 100%
Source Step = 100%
Source Step = 100%
Source Step = 100%
Source Step = 100%
Source Step = 100%
Source Step = 100%
Source Step = 100%
Source Step = 100%
Source Step = 100%
Source Step = 100%
Source Step = 100%
Source Step = 100%
Source Step = 100%
Source Step = 100%
Source Step = 100%
Source Step = 100%
Source Step = 100%
Source Step = 100%
Source Step = 100%
Source Step = 100%
Source Step = 100%
Source Step = 100%
Source Step = 100%
Source Step = 100%
Source Step = 100%
Source Step = 100%
Source Step = 100%
Source Step = 100%
Source Step = 100%
Source Step = 100%
Source Step = 100%
Source Step = 100%
Source Step = 100%
Source Step = 100%
Source Step = 100%
Source Step = 100%
Source Step = 100%
Source Step = 100%
Source Step = 100%
Source Step = 100%
Source Step = 100%
Source Step = 100%
Source Step = 100%
Source Step = 100%
Source Step = 100%
Source Step = 100%
Source Step = 100%
Source Step = 100%
Source Step = 100%
Source Step = 100%
Source Step = 100%
Source Step = 100%
Source Step = 100%
Source Step = 100%
Source Step = 100%
Source Step = 100%
Source Step = 100%
Source Step = 100%
Source Step = 100%
Source Step = 100%
Source Step = 100%
Source Step = 100%
Source Step = 100%
Source Step = 100%
Source Step = 100%
Source Step = 100%
Source Step = 100%
Source Step = 100%
Source Step = 100%
Source Step = 100%
Source Step = 100%
Source Step = 100%
Source Step = 100%
Source Step = 100%
Source Step = 100%
Source Step = 100%
Source Step = 100%
Source Step = 100%
Source Step = 100%
Source Step = 100%
Source Step = 100%
Source Step = 100%
Source Step = 100%
Source Step = 100%
Source Step = 100%
Source Step = 100%
Source Step = 100%
Source Step = 100%
Source Step = 100%
Source Step = 100%
Source Step = 100%
Source Step = 100%
Source Step = 100%
Source Step = 100%
Source Step = 100%
Source Step = 100%
Source Step = 100%
Source Step = 100%
Source Step = 100%
Source Step = 100%
Source Step = 100%
Source Step = 100%
Source Step = 100%
Source Step = 100%
Source Step = 100%
Source Step = 100%
Source Step = 100%
Source Step = 100%
Source Step = 100%
Source Step = 100%
Source Step = 100%
Source Step = 100%
Source Step = 100%
Source Step = 100%
Source Step = 100%
Source Step = 100%
Source Step = 100%
Source Step = 100%
Source Step = 100%
Source Step = 100%
Source Step = 100%
Source Step = 100%
Source Step = 100%
Source Step = 100%
Source Step = 100%
Source Step = 100%
Source Step = 100%
Source Step = 100%
Source Step = 100%
Source Step = 100%
Source Step = 100%
Source Step = 100%
Source Step = 100%
Source Step = 100%
Source Step = 100%
Source Step = 100%
Source Step = 100%
Source Step = 100%
Source Step = 100%
Source Step = 100%
Source Step = 100%
Source Step = 100%
Source Step = 100%
Source Step = 100%
Source Step = 100%
Source Step = 100%
Source Step = 100%
Source Step = 100%
Source Step = 100%
Source Step = 100%
Source Step = 100%
Source Step = 100%
Source Step = 100%
Source Step = 100%
Source Step = 100%
Source Step = 100%
Source Step = 100%
Source Step = 100%
Source Step = 100%
Source Step = 100%
Source Step = 100%
Source Step = 100%
Source Step = 100%
Source Step = 100%
Source Step = 100%
Source Step = 100%
Source Step = 100%
Source Step = 100%
Source Step = 100%
Source Step = 100%
Source Step = 100%
Source Step = 100%
Source Step = 100%
Source Step = 100%
Source Step = 100%
Source Step = 100%
Source Step = 100%
Source Step = 100%
Source Step = 100%
Source Step = 100%
Source Step = 100%
Source Step = 100%
Source Step = 100%
Source Step = 100%
Source Step = 100%
Source Step = 100%
Source Step = 100%
Source Step = 100%
Source Step = 100%
Source Step = 100%
Source Step = 100%
Source Step = 100%
Source Step = 100%
Source Step = 100%
Source Step = 100%
Source Step = 100%
Source Step = 100%
Source Step = 100%
Source Step = 100%
Source Step = 100%
Source Step = 100%
Source Step = 100%
Source Step = 100%
Source Step = 100%
Source Step = 100%
Source Step = 100%
Source Step = 100%
Source Step = 100%
Source Step = 100%
Source Step = 100%
Source Step = 100%
Source Step = 100%
Source Step = 100%
Source Step = 100%
Source Step = 100%
Source Step = 100%
Source Step = 100%
Source Step = 100%
Source Step = 100%
Source Step = 100%
Source Step = 100%
Source Step = 100%
Source Step = 100%
Source Step = 100%
Source Step = 100%
Source Step = 100%
Source Step = 100%
Source Step = 100%
Source Step = 100%
Source Step = 100%
Source Step = 100%
Source Step = 100%
Source Step = 100%
Source Step = 100%
Source Step = 100%
Source Step = 100%
Source Step = 100%
Source Step = 100%
Source Step = 100%
Source Step = 100%
Source Step = 100%
Source Step = 100%
Source Step = 100%
Source Step = 100%
Source Step = 100%
Source Step = 100%
Source Step = 100%
Source Step = 100%
Source Step = 100%
Source Step = 100%
Source Step = 100%
Source Step = 100%
Source Step = 100%
Source Step = 100%
Source Step = 100%
Source Step = 100%
Source Step = 100%
Source Step = 100%
Source Step = 100%
Source Step = 100%
Source Step = 100%
Source Step = 100%
Source Step = 100%
Source Step = 100%
Source Step = 100%
Source Step = 100%
Source Step = 100%
Source Step = 100%
Source Step = 100%
Source Step = 100%
Source Step = 100%
Source Step = 100%
Source Step = 100%
Source Step = 100%
Source Step = 100%
Source Step = 100%
Source Step = 100%
Source Step = 100%
Source Step = 100%
Source Step = 100%
Source Step = 100%
Source Step = 100%
Source Step = 100%
Source Step = 100%
Source Step = 100%
Source Step = 100%
Source Step = 100%
Source Step = 100%
Source Step = 100%
Source Step = 100%
Source Step = 100%
Source Step = 100%
Source Step = 100%
Source Step = 100%
Source Step = 100%
Source Step = 100%
Source Step = 100%
Source Step = 100%
Source Step = 100%
Source Step = 100%
Source Step = 100%
Source Step = 100%
Source Step = 100%
Source Step = 100%
Source Step = 100%
Source Step = 100%
Source Step = 100%
Source Step = 100%
Source Step = 100%
Source Step = 100%
Source Step = 100%
Source Step = 100%
Source Step = 100%
Source Step = 100%
Source Step = 100%
Source Step = 100%
Source Step = 100%
Source Step = 100%
Source Step = 100%
Source Step = 100%
Source Step = 100%
Source Step = 100%
Source Step = 100%
Source Step = 100%
Source Step = 100%
Source Step = 100%
Source Step = 100%
Source Step = 100%
Source Step = 100%
Source Step = 100%
Source Step = 100%
Source Step = 100%
Source Step = 100%
Source Step = 100%
Source Step = 100%
Source Step = 100%
Source Step = 100%
Source Step = 100%
Source Step = 100%
Source Step = 100%
Source Step = 100%
Source Step = 100%
Source Step = 100%
Source Step = 100%
Source Step = 100%
Source Step = 100%
Source Step = 100%
Source Step = 100%
Source Step = 100%
Source Step = 100%
Source Step = 100%
Source Step = 100%
Source Step = 100%
Source Step = 100%
Source Step = 100%
Source Step = 100%
Source Step = 100%
Source Step = 100%
Source Step = 100%
Source Step = 100%
Source Step = 100%
Source Step = 100%
Source Step = 100%
Source Step = 100%
Source Step = 100%
Source Step = 100%
Source Step = 100%
Source Step = 100%
Source Step = 100%
Source Step = 100%
Source Step = 100%
Source Step = 100%
Source Step = 100%
Source Step = 100%
Source Step = 100%
Source Step = 100%
Source Step = 100%
Source Step = 100%
Source Step = 100%
Source Step = 100%
Source Step = 100%
Source Step = 100%
Source Step = 100%
Source Step = 100%
Source Step = 100%
Source Step = 100%
Source Step = 100%
Source Step = 100%
Source Step = 100%
Source Step = 100%
Source Step = 100%
Source Step = 100%
Source Step = 100%
Source Step = 100%
Source Step = 100%
Source Step = 100%
Source Step = 100%
Source Step = 100%
Source Step = 100%
Source Step = 100%
Source Step = 100%
Source Step = 100%
Source Step = 100%
Source Step = 100%
Source Step = 100%
Source Step = 100%
Source Step = 100%
Source Step = 100%
Source Step = 100%
Source Step = 100%
Source Step = 100%
Source Step = 100%
Source Step = 100%
Source Step = 100%
Source Step = 100%
Source Step = 100%
Source Step = 100%
Source Step = 100%
Source Step = 100%
Source Step = 100%
Source Step = 100%
Source Step = 100%
Source Step = 100%
Source Step = 100%
Source Step = 100%
Source Step = 100%
Source Step = 100%
Source Step = 100%
Source Step = 100%
Source Step = 100%
Source Step = 100%
Source Step = 100%
Source Step = 100%
Source Step = 100%
Source Step = 100%
Source Step = 100%
Source Step = 100%
Source Step = 100%
Source Step = 100%
Source Step = 100%
Source Step = 100%
Source Step = 100%
Source Step = 100%
Source Step = 100%
Source Step = 100%
Source Step = 100%
Source Step = 100%
Source Step = 100%
Source Step = 100%
Source Step = 100%
Source Step = 100%
Source Step = 100%
Source Step = 100%
Source Step = 100%
Source Step = 100%
Source Step = 100%
Source Step = 100%
Source Step = 100%
Source Step = 100%
Source Step = 100%
Source Step = 100%
Source Step = 100%
Source Step = 100%
Source Step = 100%
Source Step = 100%
Source Step = 100%
Source Step = 100%
Source Step = 100%
Source Step = 100%
Source Step = 100%
Source Step = 100%
Source Step = 100%
Source Step = 100%
Source Step = 100%
Source Step = 100%
Source Step = 100%
Source Step = 100%
Source Step = 100%
Source Step = 100%
Source Step = 100%
Source Step = 100%
Source Step = 100%
Source Step = 100%
Source Step = 100%
Source Step = 100%
Source Step = 100%
Source Step = 100%
Source Step = 100%
Source Step = 100%
Source Step = 100%
Source Step = 100%
Source Step = 100%
Source Step = 100%
Source Step = 100%
Source Step = 100%
Source Step = 100%
Source Step = 100%
Source Step = 100%
Source Step = 100%
Source Step = 100%
Source Step = 100%
Source Step = 100%
Source Step = 100%
Source Step = 100%
Source Step = 100%
Source Step = 100%
Source Step = 100%
Source Step = 100%
Source Step = 100%
Source Step = 100%
Source Step = 100%
Source Step = 100%
Source Step = 100%
Source Step = 100%
Source Step = 100%
Source Step = 100%
Source Step = 100%
Source Step = 100%
Source Step = 100%
Source Step = 100%
Source Step = 100%
Source Step = 100%
Source Step = 100%
Source Step = 100%
Source Step = 100%
Source Step = 100%
Source Step = 100%
Source Step = 100%
Source Step = 100%
Source Step = 100%
Source Step = 100%
Source Step = 100%
Source Step = 100%
Source Step = 100%
Source Step = 100%
Source Step = 100%
Source Step = 100%
Source Step = 100%
Source Step = 100%
Source Step = 100%
Source Step = 100%
Source Step = 100%
Source Step = 100%
Source Step = 100%
Source Step = 100%
Source Step = 100%
Source Step = 100%
Source Step = 100%
Source Step = 100%
Source Step = 100%
Source Step = 100%
Source Step = 100%
Source Step = 100%
Source Step = 100%
Source Step = 100%
Source Step = 100%
Source Step = 100%
Source Step = 100%
Source Step = 100%
Source Step = 100%
Source Step = 100%
Source Step = 100%
Source Step = 100%
Source Step = 100%
Source Step = 100%
Source Step = 100%
Source Step = 100%
Source Step = 100%
Source Step = 100%
Source Step = 100%
Source Step = 100%
Source Step = 100%
Source Step = 100%
Source Step = 100%
Source Step = 100%
Source Step = 100%
Source Step = 100%
Source Step = 100%
Source Step = 100%
Source Step = 100%
Source Step = 100%
Source Step = 100%
Source Step = 100%
Source Step = 100%
Source Step = 100%
Source Step = 100%
Source Step = 100%
Source Step = 100%
Source Step = 100%
Source Step = 100%
Source Step = 100%
Source Step = 100%
Source Step = 100%
Source Step = 100%
Source Step = 100%
Source Step = 100%
Source Step = 100%
Source Step = 100%
Source Step = 100%
Source Step = 100%
Source Step = 100%
Source Step = 100%
Source Step = 100%
Source Step = 100%
Source Step = 100%
Source Step = 100%
Source Step = 100%
Source Step = 100%
Source Step = 100%
Source Step = 100%
Source Step = 100%
Source Step = 100%
Source Step = 100%
Source Step = 100%
Source Step = 100%
Source Step = 100%
Source Step = 100%
Source Step = 100%
Source Step = 100%
Source Step = 100%
Source Step = 100%
Source Step = 100%
Source Step = 100%
Source Step = 100%
Source Step = 100%
Source Step = 100%
Source Step = 100%
Source Step = 100%
Source Step = 100%
Source Step = 100%
Source Step = 100%
Source Step = 100%
Source Step = 100%
Source Step = 100%
Source Step = 100%
Source Step = 100%
Source Step = 100%
Source Step = 100%
Source Step = 100%
Source Step = 100%
Source Step = 100%
Source Step = 100%
Source Step = 100%
Source Step = 100%
Source Step = 100%
Source Step = 100%
Source Step = 100%
Source Step = 100%
Source Step = 100%
Source Step = 100%
Source Step = 100%
Source Step = 100%
Source Step = 100%
Source Step = 100%
Source Step = 100%
Source Step = 100%
Source Step = 100%
Source Step = 100%
Source Step = 100%
Source Step = 100%
Source Step = 100%
Source Step = 100%
Source Step = 100%
Source Step = 100%
Source Step = 100%
Source Step = 100%
Source Step = 100%
Source Step = 100%
Source Step = 100%
Source Step = 100%
Source Step = 100%
Source Step = 100%
Source Step = 100%
Source Step = 100%
Source Step = 100%
Source Step = 100%
Source Step = 100%
Source Step = 100%
Source Step = 100%
Source Step = 100%
Source Step = 100%
Source Step = 100%
Source Step = 100%
Source Step = 100%
Source Step = 100%
Source Step = 100%
Source Step = 100%
Source Step = 100%
Source Step = 100%
Source Step = 100%
Source Step = 100%
Source Step = 100%
Source Step = 100%
Source Step = 100%
Source Step = 100%
Source Step = 100%
Source Step = 100%
Source Step = 100%
Source Step = 100%
Source Step = 100%
Source Step = 100%
Source Step = 100%
Source Step = 100%
Source Step = 100%
Source Step = 100%
Source Step = 100%
Source Step = 100%
Source Step = 100%
Source Step = 100%
Source Step = 100%
Source Step = 100%
Source Step = 100%
Source Step = 100%
Source Step = 100%
Source Step = 100%
Source Step = 100%
Source Step = 100%
Source Step = 100%
Source Step = 100%
Source Step = 100%
Source Step = 100%
Source Step = 100%
Source Step = 100%
Source Step = 100%
Source Step = 100%
Source Step = 100%
Source Step = 100%
Source Step = 100%
Source Step = 100%
Source Step = 100%
Source Step = 100%
Source Step = 100%
Source Step = 100%
Source Step = 100%
Source Step = 100%
Source Step = 100%
Source Step = 100%
Source Step = 100%
Source Step = 100%
Source Step = 100%
Source Step = 100%
Source Step = 100%
Source Step = 100%
Source Step = 100%
Source Step = 100%
Source Step = 100%
Source Step = 100%
Source Step = 100%
Source Step = 100%
Source Step = 100%
Source Step = 100%
Source Step = 100%
Source Step = 100%
Source Step = 100%
Source Step = 100%
Source Step = 100%
Source Step = 100%
Source Step = 100%
Source Step = 100%
Source Step = 100%
Source Step = 100%
Source Step = 100%
Source Step = 100%
Source Step = 100%
Source Step = 100%
Source Step = 100%
Source Step = 100%
Source Step = 100%
Source Step = 100%
Source Step = 100%
Source Step = 100%
Source Step = 100%
Source Step = 100%
Source Step = 100%
Source Step = 100%
Source Step = 100%
Source Step = 100%
Source Step = 100%
Source Step = 100%
Source Step = 100%
Source Step = 100%
Source Step = 100%
Source Step = 100%
Source Step = 100%
Source Step = 100%
Source Step = 100%
Source Step = 100%
Source Step = 100%
Source Step = 100%
Source Step = 100%
Source Step = 100%
Source Step = 100%
Source Step = 100%
Source Step = 100%
Source Step = 100%
Source Step = 100%
Source Step = 100%
Source Step = 100%
Source Step = 100%
Source Step = 100%
Source Step = 100%
Source Step = 100%
Source Step = 100%
Source Step = 100%
Source Step = 100%
Source Step = 100%
Source Step = 100%
Source Step = 100%
Source Step = 100%
Source Step = 100%
Source Step = 100%
Source Step = 100%
Source Step = 100%
Source Step = 100%
Source Step = 100%
Source Step = 100%
Source Step = 100%
Source Step = 100%
Source Step = 100%
Source Step = 100%
Source Step = 100%
Source Step = 100%
Source Step = 100%
Source Step = 100%
Source Step = 100%
Source Step = 100%
Source Step = 100%
Source Step = 100%
Source Step = 100%
Source Step = 100%
Source Step = 100%
Source Step = 100%
Source Step = 100%
Source Step = 100%
Source Step = 100%
Source Step = 100%
Source Step = 100%
Source Step = 100%
Source Step = 100%
Source Step = 100%
Source Step = 100%
Source Step = 100%
Source Step = 100%
Source Step = 100%
Source Step = 100%
Source Step = 100%
Source Step = 100%
Source Step = 100%
Source Step = 100%
Source Step = 100%
Source Step = 100%
Source Step = 100%
Source Step = 100%
Source Step = 100%
Source Step = 100%
Source Step = 100%
Source Step = 100%
Source Step = 100%
Source Step = 100%
Source Step = 100%
Source Step = 100%
Source Step = 100%
Source Step = 100%
Source Step = 100%
Source Step = 100%
Source Step = 100%
Source Step = 100%
Source Step = 100%
Source Step = 100%
Source Step = 100%
Source Step = 100%
Source Step = 100%
Source Step = 100%
Source Step = 100%
Source Step = 100%
Source Step = 100%
Source Step = 100%
Source Step = 100%
Source Step = 100%
Source Step = 100%
Source Step = 100%
Source Step = 100%
Source Step = 100%
Source Step = 100%
Source Step = 100%
Source Step = 100%
Source Step = 100%
Source Step = 100%
Source Step = 100%
Source Step = 100%
Source Step = 100%
Source Step = 100%
Source Step = 100%
Source Step = 100%
Source Step = 100%
Source Step = 100%
Source Step = 100%
Source Step = 100%
Source Step = 100%
Source Step = 100%
Source Step = 100%
Source Step = 100%
Source Step = 100%
Source Step = 100%
Source Step = 100%
Source Step = 100%
Source Step = 100%
Source Step = 100%
Source Step = 100%
Source Step = 100%
Source Step = 100%
Source Step = 100%
Source Step = 100%
Source Step = 100%
Source Step = 100%
Source Step = 100%
Source Step = 100%
Source Step = 100%
Source Step = 100%
Source Step = 100%
Source Step = 100%
Source Step = 100%
Source Step = 100%
Source Step = 100%
Source Step = 100%
Source Step = 100%
Source Step = 100%
Source Step = 100%
Source Step = 100%
Source Step = 100%
Source Step = 100%
Source Step = 100%
Source Step = 100%
Source Step = 100%
Source Step = 100%
Source Step = 100%
Source Step = 100%
Source Step = 100%
Source Step = 100%
Source Step = 100%
Source Step = 100%
Source Step = 100%
Source stepping aborted.
Starting source stepping with srcstepmethod=1
Source Step = 3.0303%
Source Step = 33.3333%
Source Step = 63.6364%
Source Step = 93.9394%
Source Step = 100%
Source Step = 99.0118%
Source Step = 99.0414%
Source Step = 99.071%
Source Step = 99.1006%
Source Step = 99.1302%
Source Step = 99.1598%
Source Step = 99.1894%
Source Step = 99.219%
Source Step = 99.2486%
Source Step = 99.2782%
Source Step = 99.3078%
Source Step = 99.3374%
Source Step = 99.367%
Source Step = 99.3965%
Source Step = 99.4261%
Source Step = 99.4557%
Source Step = 99.4853%
Source Step = 99.5149%
Source Step = 99.5445%
Source Step = 99.5741%
Source Step = 99.6037%
Source Step = 99.6333%
Source Step = 99.6629%
Source Step = 99.6925%
Source Step = 99.7221%
Source Step = 99.7517%
Source Step = 99.7812%
Source Step = 99.8108%
Source Step = 99.8404%
Source Step = 99.87%
Source Step = 99.8996%
Source Step = 99.9292%
Source stepping aborted.
Pseudo Transient succeeded in finding the operating point at 655.412 ms.
Early termination of direct N-R iteration.
Direct Newton iteration failed to find .op point.  (Use ".option noopiter" to skip.)
Starting Gmin stepping
Gmin = 10
vernier = 0.5
Gmin = 1.67772
vernier = 0.25
vernier = 0.125
Gmin = 1.20453
vernier = 0.0625
vernier = 0.0833333
vernier = 0.0416667
Gmin = 1.12594
vernier = 0.0208333
vernier = 0.0277778
vernier = 0.0138889
Gmin = 1.09327
vernier = 0.0185185
vernier = 0.00925925
Gmin = 1.06829
vernier = 0.0123457
vernier = 0.00617283
vernier = 0.00823044
Gmin = 1.0533
vernier = 0.00411522
vernier = 0.00548696
Gmin = 1.04431
vernier = 0.00274348
vernier = 0.00365797
Gmin = 1.03789
vernier = 0.00182899
vernier = 0.00243865
Gmin = 1.033
vernier = 0.00325153
vernier = 0.00162576
Gmin = 1.0286
vernier = 0.00216769
vernier = 0.00108384
vernier = 0.00144512
Gmin = 1.026
vernier = 0.00192683
vernier = 0.000963415
Gmin = 1.02341
vernier = 0.000481708
Gmin = 0
Gmin stepping aborted per request.

Starting source stepping with srcstepmethod=0
Source Step = 3.0303%
Source Step = 33.3333%
Source Step = 63.6364%
vernier = 0.25
Source Step = 60.6889%
Source Step = 60.8073%
Source Step = 60.9257%
Source Step = 61.044%
Source Step = 61.1624%
vernier = 0.00585938
Source Step = 61.3163%
Source Step = 61.4938%
Source Step = 61.6714%
Source Step = 61.849%
Source Step = 62.0265%
vernier = 0.00878906
Source Step = 62.2485%
Source Step = 62.5148%
Source Step = 62.7811%
Source Step = 63.0475%
Source Step = 63.3138%
vernier = 0.0131836
Source Step = 63.6334%
Source Step = 64.0329%
Source Step = 64.4324%
Source Step = 64.8319%
Source Step = 65.2314%
vernier = 0.0197754
Source Step = 65.6908%
Source Step = 66.2901%
Source Step = 66.8894%
Source Step = 67.4886%
Source Step = 68.0879%
vernier = 0.0296631
Source Step = 68.747%
Source Step = 69.6459%
Source Step = 70.5448%
Source Step = 71.4437%
Source Step = 71.4886%
Source Step = 71.5448%
Source Step = 71.601%
Source Step = 71.6572%
Source Step = 71.7133%
vernier = 0.00278091
Source Step = 71.778%
Source Step = 71.8622%
Source Step = 71.9465%
Source Step = 72.0308%
Source Step = 72.115%
vernier = 0.00417137
Source Step = 72.2077%
Source Step = 72.3341%
Source Step = 72.4605%
Source Step = 72.5869%
Source Step = 72.7134%
vernier = 0.00625706
Source Step = 72.8461%
Source Step = 73.0357%
Source Step = 73.2253%
Source Step = 73.4149%
Source Step = 73.6045%
Source Step = 73.7941%
vernier = 0.00938559
Source Step = 74.0785%
Source Step = 74.3629%
Source Step = 74.6474%
Source Step = 74.9318%
Source Step = 75.2162%
vernier = 0.0140784
Source Step = 75.6286%
Source Step = 76.0552%
Source Step = 76.4818%
Source Step = 76.9084%
Source Step = 77.335%
vernier = 0.0211176
Source Step = 77.9323%
Source Step = 78.5722%
Source Step = 79.2122%
Source Step = 79.8521%
Source Step = 80.492%
vernier = 0.0316764
Source Step = 81.3559%
Source Step = 82.3158%
Source Step = 83.2757%
Source Step = 84.2356%
Source Step = 85.1955%
vernier = 0.0475145
Source Step = 86.4433%
Source Step = 87.8832%
Source Step = 89.323%
Source Step = 90.7628%
Source Step = 92.2027%
Source Step = 92.2747%
Source Step = 92.3646%
Source Step = 92.4546%
Source Step = 92.5446%
Source Step = 92.6346%
Source Step = 92.7246%
Source Step = 92.8146%
Source Step = 92.9046%
Source Step = 92.9946%
Source Step = 93.0846%
Source Step = 93.1746%
Source Step = 93.2645%
Source Step = 93.3545%
Source Step = 93.4445%
Source Step = 93.5345%
Source Step = 93.6245%
Source Step = 93.7145%
Source Step = 93.8045%
Source Step = 93.8945%
Source Step = 93.9845%
Source Step = 94.0745%
Source Step = 94.1644%
Source Step = 94.2544%
Source Step = 94.3444%
Source Step = 94.4344%
Source Step = 94.5244%
Source Step = 94.6144%
Source Step = 94.7044%
Source stepping aborted.
Starting source stepping with srcstepmethod=1
Source Step = 3.0303%
Source Step = 33.3333%
Source Step = 43.9394%
Source Step = 45.8333%
Source Step = 47.7273%
Source Step = 49.6212%
Source Step = 51.5152%
vernier = 0.09375
Source Step = 53.6932%
Source Step = 56.5341%
Source Step = 59.375%
Source Step = 62.2159%
Source Step = 65.0568%
vernier = 0.140625
Source Step = 68.1818%
Source Step = 72.4432%
Source Step = 76.7045%
Source Step = 80.9659%
Source Step = 85.2273%
vernier = 0.210938
Source Step = 89.7017%
Source Step = 92.9177%
Source Step = 93.0176%
Source Step = 93.1175%
Source Step = 93.2173%
Source Step = 93.3172%
Source Step = 93.4171%
Source Step = 93.517%
Source Step = 93.6168%
Source Step = 93.7167%
Source Step = 93.8166%
Source Step = 93.9165%
Source Step = 94.0163%
Source Step = 94.1162%
Source Step = 94.2161%
Source Step = 94.316%
Source Step = 94.4158%
Source Step = 94.5157%
Source Step = 94.6156%
Source Step = 94.7155%
Source Step = 94.8153%
Source Step = 94.9152%
Source Step = 95.0151%
Source Step = 95.115%
Source Step = 95.2148%
Source Step = 95.3147%
Source Step = 95.4146%
Source Step = 95.5145%
Source Step = 95.6143%
Source Step = 95.7142%
Source Step = 95.8141%
Source Step = 95.914%
Source Step = 96.0138%
Source Step = 96.1137%
Source Step = 96.2136%
Source Step = 96.3135%
Source Step = 96.4134%
Source Step = 96.5132%
Source Step = 96.6131%
Source Step = 96.713%
Source Step = 96.8129%
Source Step = 96.9127%
Source Step = 97.0126%
Source Step = 97.1125%
Source Step = 97.2124%
Source Step = 97.3122%
Source Step = 97.4121%
Source Step = 97.512%
Source Step = 97.6119%
Source Step = 97.7117%
Source Step = 97.8116%
Source Step = 97.9115%
Source Step = 98.0114%
Source Step = 98.1112%
Source Step = 98.2111%
Source Step = 98.311%
Source Step = 98.4109%
Source Step = 98.5107%
Source Step = 98.6106%
Source Step = 98.7105%
Source Step = 98.8104%
Source Step = 98.9102%
Source Step = 99.0101%
Source Step = 99.11%
Source Step = 99.2099%
Source Step = 99.3097%
Source Step = 99.4096%
Source Step = 99.5095%
Source Step = 99.6094%
Source Step = 99.7093%
Source Step = 99.8091%
Source Step = 99.909%
Source Step = 100%
Source Step = 100%
Source Step = 100%
Source Step = 100%
Source Step = 100%
Source Step = 100%
Source Step = 100%
Source Step = 100%
Source Step = 100%
Source Step = 100%
Source Step = 100%
Source Step = 100%
Source Step = 100%
Source stepping aborted.
Pseudo Transient succeeded in finding the operating point at 14.1872 s.
Early termination of direct N-R iteration.
Direct Newton iteration failed to find .op point.  (Use ".option noopiter" to skip.)
Starting Gmin stepping
Gmin = 10
vernier = 0.5
Gmin = 1.67772
vernier = 0.25
vernier = 0.125
Gmin = 1.20453
vernier = 0.0625
vernier = 0.0833333
vernier = 0.0416667
Gmin = 1.12594
vernier = 0.0208333
vernier = 0.0277778
vernier = 0.0138889
Gmin = 1.09327
vernier = 0.0185185
vernier = 0.00925925
Gmin = 1.06829
vernier = 0.0123457
vernier = 0.00617283
vernier = 0.00823044
Gmin = 1.0533
vernier = 0.00411522
vernier = 0.00548696
Gmin = 1.04431
vernier = 0.00274348
Gmin = 0
Gmin stepping aborted per request.

Starting source stepping with srcstepmethod=0
Source Step = 3.0303%
Source Step = 33.3333%
Source Step = 63.6364%
vernier = 0.25
Source Step = 60.6889%
Source Step = 60.8073%
Source Step = 60.9257%
Source Step = 61.044%
Source Step = 61.1624%
vernier = 0.00585938
Source Step = 61.3163%
Source Step = 61.4938%
Source Step = 61.6714%
Source Step = 61.849%
Source Step = 62.0265%
vernier = 0.00878906
Source Step = 62.2485%
Source Step = 62.5148%
Source Step = 62.7811%
Source Step = 63.0475%
Source Step = 63.3138%
vernier = 0.0131836
Source Step = 63.6334%
Source Step = 64.0329%
Source Step = 64.4324%
Source Step = 64.8319%
Source Step = 65.2314%
vernier = 0.0197754
Source Step = 65.6908%
Source Step = 66.2901%
Source Step = 66.8894%
Source Step = 67.4886%
Source Step = 68.0879%
vernier = 0.0296631
Source Step = 68.747%
Source Step = 69.6459%
Source Step = 70.5448%
Source Step = 71.4437%
Source Step = 71.9942%
Source Step = 72.0504%
Source Step = 72.1066%
Source Step = 72.1628%
Source Step = 72.219%
Source Step = 72.2752%
vernier = 0.00278091
Source Step = 72.351%
Source Step = 72.4353%
Source Step = 72.5195%
Source Step = 72.6038%
Source stepping aborted.
Starting source stepping with srcstepmethod=1
Source Step = 3.0303%
Source Step = 33.3333%
Source Step = 63.6364%
Source Step = 93.9394%
Source Step = 100%
Source Step = 99.1894%
vernier = 0.015625
Source Step = 99.0237%
Source Step = 99.0533%
Source Step = 99.0829%
Source Step = 99.1125%
Source Step = 99.142%
Source Step = 99.1716%
Source Step = 99.2012%
Source Step = 99.2308%
Source Step = 99.2604%
Source stepping aborted.
Pseudo Transient succeeded in finding the operating point at 410.749 ms.
Early termination of direct N-R iteration.
Direct Newton iteration failed to find .op point.  (Use ".option noopiter" to skip.)
Starting Gmin stepping
Gmin = 10
vernier = 0.5
Gmin = 1.67772
vernier = 0.25
vernier = 0.125
Gmin = 1.20453
vernier = 0.0625
Gmin = 0
Gmin stepping aborted per request.

Starting source stepping with srcstepmethod=0
Source Step = 3.0303%
Source Step = 33.3333%
Source Step = 63.6364%
vernier = 0.25
Source stepping aborted.
Starting source stepping with srcstepmethod=1
Source Step = 3.0303%
Source Step = 33.3333%
Source Step = 42.6136%
Source Step = 42.6817%
Source Step = 42.7113%
Source Step = 42.7409%
Source Step = 42.7705%
Source Step = 42.8001%
vernier = 0.00146484
Source Step = 42.8326%
Source Step = 42.877%
Source Step = 42.9214%
Source Step = 42.9658%
Source Step = 43.0102%
vernier = 0.00219727
Source Step = 43.0568%
Source Step = 43.1234%
Source Step = 43.19%
Source Step = 43.2565%
Source Step = 43.3231%
Source Step = 43.3897%
vernier = 0.0032959
Source Step = 43.4896%
Source Step = 43.5895%
Source Step = 43.6893%
Source Step = 43.7892%
Source Step = 43.8891%
vernier = 0.00494385
Source Step = 44.0339%
Source Step = 44.1837%
Source Step = 44.3335%
Source Step = 44.4833%
Source Step = 44.6332%
vernier = 0.00741577
Source Step = 44.8429%
Source Step = 45.0676%
Source Step = 45.2923%
Source Step = 45.5171%
Source Step = 45.7418%
vernier = 0.0111237
Source Step = 46.0452%
Source Step = 46.3822%
Source Step = 46.7193%
Source Step = 47.0564%
Source Step = 47.3935%
vernier = 0.0166855
Source Step = 47.8317%
Source Step = 48.3373%
Source Step = 48.8429%
Source Step = 49.3485%
Source Step = 49.8542%
vernier = 0.0250282
Source Step = 50.4862%
Source Step = 51.2446%
Source Step = 52.0031%
Source Step = 52.7615%
Source Step = 53.5199%
vernier = 0.0375423
Source Step = 54.43%
Source Step = 55.5677%
Source Step = 56.7053%
Source Step = 57.843%
Source Step = 58.9806%
vernier = 0.0563135
Source Step = 60.2889%
Source Step = 61.9954%
Source Step = 63.7019%
Source Step = 65.4083%
Source Step = 67.1148%
vernier = 0.0844703
Source Step = 68.9919%
Source Step = 71.5516%
Source Step = 74.1113%
Source Step = 76.671%
Source Step = 79.2307%
vernier = 0.126705
Source Step = 81.9184%
Source Step = 85.758%
Source Step = 89.5975%
Source Step = 92.3092%
vernier = 0.00197977
Source Step = 92.3452%
Source Step = 92.4052%
Source Step = 92.4652%
Source Step = 92.5252%
Source Step = 92.5852%
Source Step = 92.6452%
Source Step = 92.7052%
Source stepping aborted.
Pseudo Transient succeeded in finding the operating point at 328.415 ms.
Early termination of direct N-R iteration.
Direct Newton iteration failed to find .op point.  (Use ".option noopiter" to skip.)
Starting Gmin stepping
Gmin = 10
vernier = 0.5
Gmin = 1.67772
vernier = 0.25
vernier = 0.125
Gmin = 1.20453
vernier = 0.0625
vernier = 0.03125
Gmin = 0
Gmin stepping aborted per request.

Starting source stepping with srcstepmethod=0
Source Step = 3.0303%
Source Step = 33.3333%
Source Step = 63.6364%
vernier = 0.25
Source Step = 61.1269%
Source Step = 61.6004%
Source Step = 62.0739%
Source Step = 62.5473%
Source Step = 63.0208%
vernier = 0.0234375
Source Step = 63.6364%
Source Step = 64.3466%
Source Step = 65.0568%
Source Step = 65.767%
Source stepping aborted.
Starting source stepping with srcstepmethod=1
Source Step = 3.0303%
Source Step = 33.3333%
Source Step = 43.3712%
Source Step = 45.2652%
Source Step = 47.1591%
Source Step = 49.053%
Source Step = 50.947%
vernier = 0.09375
Source Step = 53.2197%
Source Step = 56.0606%
Source Step = 58.9015%
Source Step = 61.7424%
Source Step = 64.5833%
vernier = 0.140625
Source Step = 67.8504%
Source Step = 72.1117%
Source Step = 76.3731%
Source Step = 80.6345%
Source Step = 84.8958%
vernier = 0.210938
Source Step = 89.5833%
Source Step = 95.9754%
Source stepping succeeded in finding the operating point.

Singular matrix:  Check node n006
   Iteration No. 2
Direct Newton iteration failed to find .op point.  (Use ".option noopiter" to skip.)
Starting Gmin stepping
Increasing initial diagonal Gmin to 100
Gmin = 100
Gmin = 10.7374
vernier = 0.5
Gmin = 1.80144
vernier = 0.25
vernier = 0.125
Gmin = 1.2215
vernier = 0.0625
vernier = 0.03125
Gmin = 0
Gmin stepping aborted per request.

Starting source stepping with srcstepmethod=1
Source Step = 3.0303%
Source Step = 33.3333%
Source Step = 42.4302%
Source stepping aborted.
Starting source stepping with srcstepmethod=0
Source Step = 3.0303%
Source Step = 33.3333%
Source Step = 63.6364%
vernier = 0.25
Source Step = 68.1818%
Source Step = 75.7576%
Source Step = 83.3333%
Source Step = 90.9091%
Source Step = 98.4848%
vernier = 0.375
Source Step = 100%
Source stepping succeeded in finding the operating point.

Singular matrix:  Check nodes d:u7:s#int1 and d:u7:rev#int1
   Iteration No. 2
Direct Newton iteration failed to find .op point.  (Use ".option noopiter" to skip.)
Starting Gmin stepping
Gmin = 10
vernier = 0.5
Gmin = 1.67772
vernier = 0.25
vernier = 0.125
Gmin = 1.20453
vernier = 0.0625
vernier = 0.0833333
vernier = 0.0416667
vernier = 0.0208333
Gmin = 0
Gmin stepping aborted per request.

Starting source stepping with srcstepmethod=0
Source Step = 3.0303%
Source Step = 33.3333%
Source Step = 63.6364%
vernier = 0.25
Source Step = 62.3106%
Source Step = 64.2045%
Source Step = 66.0985%
Source Step = 67.9924%
Source Step = 69.8864%
vernier = 0.09375
Source Step = 72.5379%
Source Step = 75.3788%
Source Step = 78.2197%
Source Step = 81.0606%
Source Step = 83.9015%
vernier = 0.140625
Source Step = 87.7367%
Source Step = 91.9981%
Source Step = 96.2595%
Source stepping succeeded in finding the operating point.

Singular matrix:  Check nodes d:u7:clp#int1 and u7:agnd
   Iteration No. 2
Direct Newton iteration failed to find .op point.  (Use ".option noopiter" to skip.)
Starting Gmin stepping
Gmin = 10
vernier = 0.5
Gmin = 1.67772
vernier = 0.25
Gmin = 0
Gmin stepping aborted per request.

Starting source stepping with srcstepmethod=0
Source Step = 3.0303%
Source Step = 33.3333%
Source Step = 63.6364%
vernier = 0.25
Source Step = 60.902%
Source Step = 60.9375%
Source Step = 60.9671%
Source Step = 60.9967%
Source Step = 61.0263%
Source Step = 61.0559%
vernier = 0.00146484
Source Step = 61.0958%
Source Step = 61.1402%
Source Step = 61.1846%
Source Step = 61.229%
Source Step = 61.2734%
vernier = 0.00219727
Source Step = 61.3311%
Source Step = 61.3977%
Source Step = 61.4643%
Source Step = 61.5308%
Source Step = 61.5974%
vernier = 0.0032959
Source Step = 61.6806%
Source Step = 61.7805%
Source Step = 61.8804%
Source Step = 61.9803%
Source Step = 62.0802%
vernier = 0.00494385
Source Step = 62.2%
Source Step = 62.3498%
Source Step = 62.4996%
Source Step = 62.6494%
Source Step = 62.7993%
vernier = 0.00741577
Source Step = 62.9715%
Source Step = 63.1963%
Source Step = 63.421%
Source Step = 63.6457%
Source Step = 63.8704%
vernier = 0.0111237
Source Step = 64.1176%
Source Step = 64.4547%
Source Step = 64.7918%
Source Step = 65.1289%
Source Step = 65.4659%
vernier = 0.0166855
Source Step = 65.8199%
Source Step = 66.3255%
Source Step = 66.8311%
Source Step = 67.3367%
Source Step = 67.8424%
Source Step = 68.348%
vernier = 0.0250282
Source Step = 69.1064%
Source Step = 69.8648%
Source Step = 70.6233%
Source Step = 71.3817%
Source Step = 72.1401%
vernier = 0.0375423
Source Step = 73.2399%
Source Step = 74.3775%
Source Step = 75.5152%
Source Step = 76.6528%
Source Step = 77.7904%
vernier = 0.0563135
Source Step = 79.3832%
Source stepping aborted.
Starting source stepping with srcstepmethod=1
Source Step = 3.0303%
Source Step = 33.3333%
Source Step = 42.6136%
Source Step = 42.6817%
Source Step = 42.7113%
Source Step = 42.7409%
Source Step = 42.7705%
Source Step = 42.8001%
vernier = 0.00146484
Source Step = 42.8311%
Source Step = 42.8755%
Source Step = 42.9199%
Source Step = 42.9643%
Source Step = 43.0087%
Source Step = 43.0531%
vernier = 0.00219727
Source Step = 43.1197%
Source Step = 43.1863%
Source Step = 43.2528%
Source Step = 43.3194%
Source Step = 43.386%
vernier = 0.0032959
Source Step = 43.4826%
Source Step = 43.5824%
Source Step = 43.6823%
Source Step = 43.7822%
Source Step = 43.8821%
vernier = 0.00494385
Source Step = 44.0219%
Source Step = 44.1717%
Source Step = 44.3215%
Source Step = 44.4713%
Source Step = 44.6211%
vernier = 0.00741577
Source Step = 44.8234%
Source Step = 45.0481%
Source Step = 45.2728%
Source Step = 45.4975%
Source Step = 45.7223%
vernier = 0.0111237
Source Step = 46.0144%
Source Step = 46.3515%
Source Step = 46.6886%
Source Step = 47.0256%
Source Step = 47.3627%
vernier = 0.0166855
Source Step = 47.7841%
Source Step = 48.2897%
Source Step = 48.7953%
Source Step = 49.3009%
Source Step = 49.8066%
vernier = 0.0250282
Source Step = 50.4133%
Source Step = 51.1717%
Source Step = 51.9302%
Source Step = 52.6886%
Source Step = 53.447%
vernier = 0.0375423
Source Step = 54.3192%
Source Step = 55.4569%
Source Step = 56.5945%
Source Step = 57.7322%
Source Step = 58.8698%
vernier = 0.0563135
Source Step = 60.1212%
Source Step = 61.8277%
Source Step = 63.5342%
Source Step = 65.2406%
Source Step = 66.9471%
vernier = 0.0844703
Source Step = 68.7389%
Source Step = 71.2986%
Source Step = 73.8583%
Source Step = 76.418%
Source Step = 78.9777%
Source Step = 81.5374%
vernier = 0.126705
Source Step = 85.377%
Source Step = 89.2165%
Source Step = 93.0561%
Source Step = 96.8957%
Source stepping succeeded in finding the operating point.

Singular matrix:  Check node q7#collector
   Iteration No. 2
Direct Newton iteration failed to find .op point.  (Use ".option noopiter" to skip.)
Starting Gmin stepping
Gmin = 10
vernier = 0.5
Gmin = 1.67772
vernier = 0.25
vernier = 0.125
Gmin = 1.20453
vernier = 0.0625
vernier = 0.03125
Gmin = 0
Gmin stepping aborted per request.

Starting source stepping with srcstepmethod=1
Source Step = 3.0303%
Source Step = 33.3333%
Source Step = 42.6166%
Source Step = 42.6462%
Source Step = 42.6758%
Source Step = 42.7054%
Source Step = 42.735%
Source Step = 42.7646%
vernier = 0.00146484
Source Step = 42.8075%
Source stepping aborted.
Starting source stepping with srcstepmethod=0
Source Step = 3.0303%
Source Step = 33.3333%
Source Step = 63.6364%
Source Step = 93.9394%
Source Step = 100%
Source Step = 100%
Source stepping succeeded in finding the operating point.

Singular matrix:  Check node q8#base
   Iteration No. 2
Direct Newton iteration failed to find .op point.  (Use ".option noopiter" to skip.)
Starting Gmin stepping
Gmin = 10
vernier = 0.5
Gmin = 1.67772
vernier = 0.25
vernier = 0.125
Gmin = 1.20453
vernier = 0.0625
vernier = 0.03125
Gmin = 0
Gmin stepping aborted per request.

Starting source stepping with srcstepmethod=0
Source Step = 3.0303%
Source Step = 33.3333%
Source Step = 63.6364%
vernier = 0.25
Source stepping aborted.
Starting source stepping with srcstepmethod=1
Source Step = 3.0303%
Source Step = 33.3333%
Source Step = 43.3712%
Source Step = 45.2652%
Source Step = 47.1591%
Source Step = 49.053%
Source Step = 50.947%
vernier = 0.09375
Source Step = 53.2197%
Source Step = 56.0606%
Source Step = 58.9015%
Source Step = 61.7424%
Source Step = 64.5833%
vernier = 0.140625
Source Step = 67.8504%
Source Step = 72.1117%
Source Step = 76.3731%
Source Step = 80.6345%
Source Step = 84.8958%
vernier = 0.210938
Source Step = 89.5833%
Source Step = 95.9754%
Source stepping succeeded in finding the operating point.

Early termination of direct N-R iteration.
Direct Newton iteration failed to find .op point.  (Use ".option noopiter" to skip.)
Starting Gmin stepping
Singular matrix:  Check nodes vref and u7:b
   Iteration No. 2
Initial Gmin=10 failed
Gmin stepping failed

Starting source stepping with srcstepmethod=1
Source Step = 3.0303%
Source Step = 33.3333%
Source stepping aborted.
Starting source stepping with srcstepmethod=0
Source Step = 3.0303%
Source Step = 33.3333%
Source Step = 63.6364%
vernier = 0.25
Source Step = 62.8788%
Source Step = 64.7727%
Source Step = 66.6667%
Source Step = 68.5606%
Source Step = 70.4545%
vernier = 0.09375
Source Step = 73.0114%
Source Step = 75.8523%
Source Step = 78.6932%
Source Step = 81.5341%
Source Step = 84.375%
vernier = 0.140625
Source Step = 88.0682%
Source Step = 92.3295%
Source Step = 96.5909%
Source stepping succeeded in finding the operating point.

Early termination of direct N-R iteration.
Direct Newton iteration failed to find .op point.  (Use ".option noopiter" to skip.)
Starting Gmin stepping
Singular matrix:  Check node q1#collector
   Iteration No. 2
Initial Gmin=10 failed
Gmin stepping failed

Starting source stepping with srcstepmethod=0
Source Step = 3.0303%
Source Step = 33.3333%
Source Step = 63.6364%
vernier = 0.25
Source Step = 62.8788%
Source Step = 64.7727%
Source Step = 66.6667%
Source Step = 68.5606%
Source Step = 70.4545%
vernier = 0.09375
Source Step = 73.0114%
Source Step = 75.8523%
Source Step = 78.6932%
Source Step = 81.5341%
Source Step = 84.375%
vernier = 0.140625
Source Step = 88.0682%
Source Step = 92.3295%
Source Step = 96.5909%
Source stepping succeeded in finding the operating point.

Early termination of direct N-R iteration.
Direct Newton iteration failed to find .op point.  (Use ".option noopiter" to skip.)
Starting Gmin stepping
Singular matrix:  Check nodes d:u7:s#int1 and d:u7:s1#int1
   Iteration No. 2
Initial Gmin=10 failed
Gmin stepping failed

Starting source stepping with srcstepmethod=0
Source Step = 3.0303%
Source Step = 33.3333%
Source Step = 63.6364%
vernier = 0.25
Source Step = 60.902%
Source Step = 61.0204%
Source Step = 61.1387%
Source Step = 61.2571%
Source Step = 61.3755%
Source Step = 61.4938%
vernier = 0.00585938
Source Step = 61.6714%
Source Step = 61.849%
Source Step = 62.0265%
Source Step = 62.2041%
Source Step = 62.3816%
vernier = 0.00878906
Source Step = 62.6391%
Source Step = 62.9054%
Source Step = 63.1718%
Source Step = 63.4381%
Source Step = 63.7044%
vernier = 0.0131836
Source Step = 64.0773%
Source Step = 64.4768%
Source Step = 64.8763%
Source Step = 65.2758%
Source Step = 65.6753%
vernier = 0.0197754
Source Step = 66.2146%
Source Step = 66.8139%
Source Step = 67.4131%
Source Step = 68.0124%
Source Step = 68.6117%
vernier = 0.0296631
Source Step = 69.3907%
Source Step = 70.2896%
Source Step = 71.1884%
Source Step = 72.0873%
Source Step = 72.9862%
vernier = 0.0444946
Source Step = 74.1098%
Source Step = 75.4581%
Source Step = 76.8065%
Source Step = 78.1548%
Source Step = 79.5031%
vernier = 0.0667419
Source Step = 81.1211%
Source Step = 83.1436%
Source Step = 85.1661%
Source Step = 87.1885%
Source Step = 89.211%
vernier = 0.100113
Source Step = 91.5369%
Source Step = 94.5706%
Source Step = 97.6043%
Source stepping succeeded in finding the operating point.


vo1_rl: v(vo)=4.98264 at 0
vo2_rl: v(vo)=4.98174 at 1
regline: (vo1_rl - vo2_rl)/(i1_rl - i2_rl)=-0.00089407

Total elapsed time: 134.865 seconds.

