LTspice 24.1.5 for Windows
Circuit: C:\Users\ramaz\Desktop\Circuitos II\TP-TA138-G7\Simulación\LDO\simulacion_LDO.net
Start Time: Sun Apr 12 02:13:27 2026
solver = Normal
Maximum thread count: 12
tnom = 27
temp = 27
method = trap
Direct Newton iteration failed to find .op point.  (Use ".option noopiter" to skip.)
Starting Gmin stepping
Gmin = 10
vernier = 0.5
Gmin = 1.67772
vernier = 0.25
vernier = 0.125
Gmin = 1.20453
vernier = 0.0625
vernier = 0.0833333
vernier = 0.0416667
Gmin = 1.12594
vernier = 0.0208333
vernier = 0.0277778
vernier = 0.0138889
Gmin = 1.09327
vernier = 0.0185185
vernier = 0.00925925
Gmin = 1.06829
vernier = 0.0123457
vernier = 0.00617283
vernier = 0.00823044
Gmin = 1.0533
vernier = 0.00411522
vernier = 0.00548696
Gmin = 1.0436
vernier = 0.00274348
vernier = 0.00365797
Gmin = 1.03718
vernier = 0.00182899
vernier = 0.00243865
Gmin = 1.03229
vernier = 0.00325153
vernier = 0.00162576
Gmin = 1.0279
vernier = 0.00216769
vernier = 0.00108384
vernier = 0.00144512
Gmin = 1.0253
vernier = 0.00192683
vernier = 0.000963415
Gmin = 1.02271
vernier = 0.00128455
vernier = 0.000642277
Gmin = 1.02058
vernier = 0.000856369
vernier = 0.00114182
Gmin = 1.01849
vernier = 0.000570912
vernier = 0.000761216
Gmin = 1.01728
vernier = 0.00101495
vernier = 0.000507477
vernier = 0.000676636
Gmin = 1.01607
vernier = 0.000902182
vernier = 0.000451091
Gmin = 1.01487
vernier = 0.000601454
vernier = 0.000451091
Gmin = 1.01388
vernier = 0.000601454
vernier = 0.000451091
vernier = 0.000601454
vernier = 0.000451091
Gmin = 1.01319
vernier = 0.000601454
vernier = 0.00045109
Gmin = 1.01228
Gmin = 0
Gmin stepping failed

Starting source stepping with srcstepmethod=0
Source Step = 3.0303%
Source Step = 33.3333%
Source Step = 63.6364%
Source Step = 93.9394%
Source stepping succeeded in finding the operating point.

Direct Newton iteration failed to find .op point.  (Use ".option noopiter" to skip.)
Starting Gmin stepping
Gmin = 10
vernier = 0.5
Gmin = 1.67772
vernier = 0.25
vernier = 0.125
Gmin = 1.20453
vernier = 0.0625
vernier = 0.0833333
vernier = 0.0416667
Gmin = 1.12594
vernier = 0.0208333
vernier = 0.0277778
vernier = 0.0138889
Gmin = 1.09327
vernier = 0.0185185
vernier = 0.00925925
Gmin = 1.06829
vernier = 0.0123457
vernier = 0.00617283
vernier = 0.00823044
Gmin = 1.0533
vernier = 0.00411522
vernier = 0.00548696
Gmin = 1.0436
vernier = 0.00274348
vernier = 0.00365797
Gmin = 1.03718
vernier = 0.00182899
vernier = 0.00243865
Gmin = 1.03229
vernier = 0.00325153
vernier = 0.00162576
Gmin = 1.0279
vernier = 0.00216769
vernier = 0.00108384
vernier = 0.00144512
Gmin = 1.0253
vernier = 0.00192683
vernier = 0.000963415
Gmin = 1.02271
vernier = 0.00128455
vernier = 0.000642277
Gmin = 1.02058
vernier = 0.000856369
vernier = 0.00114182
Gmin = 1.01849
vernier = 0.000570912
vernier = 0.000761216
Gmin = 1.01728
vernier = 0.00101495
vernier = 0.000507477
vernier = 0.000676636
Gmin = 1.01607
vernier = 0.000902182
vernier = 0.000451091
Gmin = 1.01487
vernier = 0.000601454
vernier = 0.000451091
Gmin = 1.01388
vernier = 0.000601454
vernier = 0.000451091
vernier = 0.000601454
vernier = 0.000451091
Gmin = 1.01319
vernier = 0.000601454
vernier = 0.00045109
Gmin = 1.01228
Gmin = 0
Gmin stepping failed

Starting source stepping with srcstepmethod=0
Source Step = 3.0303%
Source Step = 33.3333%
Source Step = 63.6364%
Source Step = 93.9394%
Source stepping succeeded in finding the operating point.

Direct Newton iteration failed to find .op point.  (Use ".option noopiter" to skip.)
Starting Gmin stepping
Gmin = 10
vernier = 0.5
Gmin = 1.67772
vernier = 0.25
vernier = 0.125
Gmin = 1.20453
vernier = 0.0625
vernier = 0.03125
Gmin = 1.12325
vernier = 0.0416667
vernier = 0.0208333
vernier = 0.0104167
Gmin = 1.08598
vernier = 0.0138889
vernier = 0.00694444
Gmin = 1.06546
vernier = 0.00925925
vernier = 0.00462963
Gmin = 1.05199
vernier = 0.00617283
vernier = 0.00308642
Gmin = 1.04271
vernier = 0.00411522
vernier = 0.00205761
Gmin = 1.03603
vernier = 0.00274348
vernier = 0.00365797
vernier = 0.00182899
Gmin = 1.03071
vernier = 0.00243865
vernier = 0.00121932
Gmin = 1.02742
vernier = 0.00162576
vernier = 0.00216769
vernier = 0.00108384
Gmin = 1.02429
vernier = 0.00144512
vernier = 0.000722562
Gmin = 1.02198
vernier = 0.000963415
Gmin = 1.01977
vernier = 0.00128455
vernier = 0.000642277
vernier = 0.000856369
Gmin = 1.0183
vernier = 0.00114182
vernier = 0.000570912
Gmin = 1.01692
vernier = 0.000761216
vernier = 0.000570912
Gmin = 1.01556
vernier = 0.000761216
vernier = 0.000570912
vernier = 0.000761216
vernier = 0.000570912
Gmin = 1.01469
vernier = 0.000761216
vernier = 0.000570912
vernier = 0.000428184
Gmin = 1.01386
vernier = 0.000570912
vernier = 0.000428184
Gmin = 1.01299
vernier = 0.000570912
vernier = 0.000428184
vernier = 0.000570911
vernier = 0.000428184
Gmin = 1.01234
Gmin = 0
Gmin stepping failed

Starting source stepping with srcstepmethod=0
Source Step = 3.0303%
Source Step = 33.3333%
Source Step = 63.6364%
Source Step = 93.9394%
Source stepping succeeded in finding the operating point.

Direct Newton iteration failed to find .op point.  (Use ".option noopiter" to skip.)
Starting Gmin stepping
Gmin = 10
vernier = 0.5
Gmin = 1.67772
vernier = 0.25
vernier = 0.125
Gmin = 1.20453
vernier = 0.0625
vernier = 0.03125
Gmin = 1.12325
vernier = 0.0416667
vernier = 0.0208333
vernier = 0.0104167
Gmin = 1.08598
vernier = 0.0138889
vernier = 0.00694444
Gmin = 1.06546
vernier = 0.00925925
vernier = 0.00462963
Gmin = 1.05199
vernier = 0.00617283
vernier = 0.00308642
Gmin = 1.04271
vernier = 0.00411522
vernier = 0.00205761
Gmin = 1.03603
vernier = 0.00274348
vernier = 0.00365797
vernier = 0.00182899
Gmin = 1.03071
vernier = 0.00243865
vernier = 0.00121932
Gmin = 1.02742
vernier = 0.00162576
vernier = 0.00216769
vernier = 0.00108384
Gmin = 1.02429
vernier = 0.00144512
vernier = 0.000722562
Gmin = 1.02198
vernier = 0.000963415
Gmin = 1.01977
vernier = 0.00128455
vernier = 0.000642277
vernier = 0.000856369
Gmin = 1.0183
vernier = 0.00114182
vernier = 0.000570912
Gmin = 1.01692
vernier = 0.000761216
vernier = 0.000570912
Gmin = 1.01556
vernier = 0.000761216
vernier = 0.000570912
vernier = 0.000761216
vernier = 0.000570912
Gmin = 1.01469
vernier = 0.000761216
vernier = 0.000570912
vernier = 0.000428184
Gmin = 1.01386
vernier = 0.000570912
vernier = 0.000428184
Gmin = 1.01299
vernier = 0.000570912
vernier = 0.000428184
vernier = 0.000570911
vernier = 0.000428184
Gmin = 1.01234
Gmin = 0
Gmin stepping failed

Starting source stepping with srcstepmethod=0
Source Step = 3.0303%
Source Step = 33.3333%
Source Step = 63.6364%
Source Step = 93.9394%
Source Step = 100%
Source stepping succeeded in finding the operating point.

Early termination of direct N-R iteration.
Direct Newton iteration failed to find .op point.  (Use ".option noopiter" to skip.)
Starting Gmin stepping
Gmin = 10
vernier = 0.5
Gmin = 1.67772
vernier = 0.25
vernier = 0.125
Gmin = 1.20453
vernier = 0.0625
vernier = 0.03125
Gmin = 1.12325
vernier = 0.0416667
vernier = 0.0208333
vernier = 0.0104167
Gmin = 1.08598
vernier = 0.0138889
vernier = 0.00694444
Gmin = 1.06546
vernier = 0.00925925
vernier = 0.00462963
Gmin = 1.05199
vernier = 0.00617283
vernier = 0.00308642
Gmin = 1.04271
vernier = 0.00411522
vernier = 0.00205761
Gmin = 1.03603
vernier = 0.00274348
vernier = 0.00365797
vernier = 0.00182899
Gmin = 1.03071
vernier = 0.00243865
vernier = 0.00121932
Gmin = 1.02742
vernier = 0.00162576
vernier = 0.00216769
vernier = 0.00108384
Gmin = 1.02429
vernier = 0.00144512
vernier = 0.000722562
Gmin = 1.02217
vernier = 0.000963415
vernier = 0.00128455
Gmin = 1.01981
vernier = 0.000642277
vernier = 0.000856369
Gmin = 1.01845
vernier = 0.00114182
vernier = 0.000570912
vernier = 0.000761216
Gmin = 1.01709
vernier = 0.00101495
vernier = 0.000507477
Gmin = 1.01574
vernier = 0.000676636
vernier = 0.000507477
Gmin = 1.01466
vernier = 0.000676636
vernier = 0.000507477
vernier = 0.000676636
vernier = 0.000507477
Gmin = 1.01389
vernier = 0.000676636
vernier = 0.000507477
Gmin = 0
Gmin stepping failed

Starting source stepping with srcstepmethod=0
Source Step = 3.0303%
Source Step = 33.3333%
Source Step = 63.6364%
Source Step = 93.9394%
Source Step = 96.9815%
Source Step = 97.0111%
Source Step = 97.0407%
Source Step = 97.0703%
Source Step = 97.0999%
vernier = 0.00146484
Source Step = 97.1339%
Source Step = 97.1783%
Source Step = 97.2227%
Source Step = 97.2671%
Source Step = 97.3115%
vernier = 0.00219727
Source Step = 97.3603%
Source Step = 97.4269%
Source Step = 97.4935%
Source Step = 97.5601%
Source Step = 97.6267%
vernier = 0.0032959
Source Step = 97.6966%
Source Step = 97.7964%
Source Step = 97.8963%
Source Step = 97.9962%
Source Step = 98.0961%
Source Step = 98.1959%
vernier = 0.00494385
Source Step = 98.3458%
Source Step = 98.4956%
Source Step = 98.6454%
Source Step = 98.7952%
Source Step = 98.945%
vernier = 0.00741577
Source Step = 99.1622%
Source Step = 99.387%
Source Step = 99.6117%
Source Step = 99.8364%
Source stepping succeeded in finding the operating point.

Early termination of direct N-R iteration.
Direct Newton iteration failed to find .op point.  (Use ".option noopiter" to skip.)
Starting Gmin stepping
Gmin = 10
vernier = 0.5
Gmin = 1.67772
vernier = 0.25
vernier = 0.125
Gmin = 1.20453
vernier = 0.0625
vernier = 0.03125
Gmin = 1.12325
vernier = 0.0416667
vernier = 0.0208333
vernier = 0.0104167
Gmin = 1.08598
vernier = 0.0138889
vernier = 0.00694444
Gmin = 1.06546
vernier = 0.00925925
vernier = 0.00462963
Gmin = 1.05199
vernier = 0.00617283
vernier = 0.00308642
Gmin = 1.04351
vernier = 0.00411522
vernier = 0.00205761
Gmin = 1.03656
vernier = 0.00274348
vernier = 0.00365797
vernier = 0.00182899
Gmin = 1.03124
vernier = 0.00243865
vernier = 0.00121932
Gmin = 1.02795
vernier = 0.00162576
vernier = 0.00216769
vernier = 0.00108384
Gmin = 1.02482
vernier = 0.00144512
vernier = 0.000722562
Gmin = 1.02232
vernier = 0.000963415
Gmin = 1.02017
vernier = 0.00128455
vernier = 0.000642277
vernier = 0.000856369
Gmin = 1.01867
vernier = 0.00114182
vernier = 0.000570912
Gmin = 1.01722
vernier = 0.000761216
vernier = 0.000570912
Gmin = 1.01582
vernier = 0.000761216
vernier = 0.000570912
Gmin = 1.01466
vernier = 0.000761216
vernier = 0.000570912
vernier = 0.000428184
Gmin = 1.01386
vernier = 0.000570912
vernier = 0.000428184
Gmin = 1.01299
vernier = 0.000570912
vernier = 0.000428184
vernier = 0.000570912
vernier = 0.000428184
Gmin = 1.01234
Gmin = 0
Gmin stepping failed

Starting source stepping with srcstepmethod=0
Source Step = 3.0303%
Source Step = 33.3333%
Source Step = 63.6364%
Source Step = 93.9394%
Source Step = 96.9815%
Source Step = 97.0111%
Source Step = 97.0407%
Source Step = 97.0703%
Source Step = 97.0999%
Source Step = 97.1295%
Source Step = 97.1591%
Source Step = 97.1887%
Source Step = 97.2183%
Source Step = 97.2479%
Source Step = 97.2775%
Source Step = 97.3071%
Source Step = 97.3366%
Source Step = 97.3662%
Source Step = 97.3958%
Source Step = 97.4254%
vernier = 0.00146484
Source Step = 97.4639%
Source Step = 97.5083%
Source Step = 97.5527%
Source Step = 97.5971%
Source Step = 97.6415%
vernier = 0.00219727
Source Step = 97.6969%
Source Step = 97.7635%
Source Step = 97.8301%
Source Step = 97.8967%
Source Step = 97.9633%
vernier = 0.0032959
Source Step = 98.0432%
Source Step = 98.1431%
Source Step = 98.2429%
Source Step = 98.3428%
Source Step = 98.4427%
vernier = 0.00494385
Source Step = 98.5575%
Source Step = 98.7073%
Source Step = 98.8572%
Source Step = 99.007%
Source Step = 99.1568%
vernier = 0.00741577
Source Step = 99.3216%
Source Step = 99.4227%
Source Step = 99.4789%
Source Step = 99.5351%
Source Step = 99.5912%
Source Step = 99.6474%
Source Step = 99.7036%
Source Step = 99.7598%
Source Step = 99.816%
Source Step = 99.8721%
Source Step = 99.9283%
Source Step = 99.9845%
Source Step = 100%
Source Step = 100%
Source Step = 100%
Source Step = 100%
Source Step = 100%
Source Step = 100%
Source Step = 100%
Source Step = 100%
Source Step = 100%
Source Step = 100%
Source Step = 100%
Source Step = 100%
Source Step = 100%
Source Step = 100%
Source Step = 100%
Source Step = 100%
Source Step = 100%
Source Step = 100%
Source Step = 100%
Source Step = 100%
Source Step = 100%
Source Step = 100%
Source Step = 100%
Source Step = 100%
Source Step = 100%
Source Step = 100%
Source Step = 100%
Source Step = 100%
Source Step = 100%
Source Step = 100%
Source Step = 100%
Source Step = 100%
Source Step = 100%
Source Step = 100%
Source Step = 100%
Source Step = 100%
Source Step = 100%
Source Step = 100%
Source Step = 100%
Source Step = 100%
Source Step = 100%
Source Step = 100%
Source Step = 100%
Source Step = 100%
Source Step = 100%
Source Step = 100%
Source Step = 100%
Source Step = 100%
Source Step = 100%
Source Step = 100%
Source Step = 100%
Source Step = 100%
Source Step = 100%
Source Step = 100%
Source Step = 100%
Source Step = 100%
Source Step = 100%
Source Step = 100%
Source Step = 100%
Source Step = 100%
Source Step = 100%
Source Step = 100%
Source Step = 100%
Source Step = 100%
Source Step = 100%
Source Step = 100%
Source Step = 100%
Source Step = 100%
Source Step = 100%
Source Step = 100%
Source Step = 100%
Source Step = 100%
Source Step = 100%
Source Step = 100%
Source Step = 100%
Source Step = 100%
Source Step = 100%
Source Step = 100%
Source Step = 100%
Source Step = 100%
Source Step = 100%
Source Step = 100%
Source Step = 100%
Source Step = 100%
Source Step = 100%
Source Step = 100%
Source Step = 100%
Source Step = 100%
Source Step = 100%
Source Step = 100%
Source Step = 100%
Source Step = 100%
Source Step = 100%
Source Step = 100%
Source Step = 100%
Source Step = 100%
Source Step = 100%
Source Step = 100%
Source Step = 100%
Source Step = 100%
Source Step = 100%
Source Step = 100%
Source Step = 100%
Source Step = 100%
Source Step = 100%
Source Step = 100%
Source Step = 100%
Source Step = 100%
Source Step = 100%
Source Step = 100%
Source Step = 100%
Source Step = 100%
Source Step = 100%
Source Step = 100%
Source Step = 100%
Source Step = 100%
Source Step = 100%
Source Step = 100%
Source Step = 100%
Source Step = 100%
Source Step = 100%
Source Step = 100%
Source Step = 100%
Source Step = 100%
Source Step = 100%
Source Step = 100%
Source Step = 100%
Source Step = 100%
Source Step = 100%
Source Step = 100%
Source Step = 100%
Source Step = 100%
Source Step = 100%
Source Step = 100%
Source Step = 100%
Source Step = 100%
Source Step = 100%
Source Step = 100%
Source Step = 100%
Source Step = 100%
Source Step = 100%
Source Step = 100%
Source Step = 100%
Source Step = 100%
Source Step = 100%
Source Step = 100%
Source Step = 100%
Source Step = 100%
Source Step = 100%
Source Step = 100%
Source Step = 100%
Source Step = 100%
Source Step = 100%
Source Step = 100%
Source Step = 100%
Source Step = 100%
Source Step = 100%
Source Step = 100%
Source Step = 100%
Source Step = 100%
Source Step = 100%
Source Step = 100%
Source Step = 100%
Source Step = 100%
Source Step = 100%
Source Step = 100%
Source Step = 100%
Source Step = 100%
Source Step = 100%
Source Step = 100%
Source Step = 100%
Source stepping aborted.
Starting source stepping with srcstepmethod=1
Source Step = 3.0303%
Source Step = 33.3333%
Source Step = 63.6364%
Source Step = 93.9394%
Source Step = 99.0473%
vernier = 0.00390625
Source Step = 99.0266%
Source Step = 99.0562%
Source Step = 99.0858%
Source Step = 99.1154%
Source Step = 99.145%
Source Step = 99.1746%
Source Step = 99.2042%
Source Step = 99.2338%
Source Step = 99.2634%
Source Step = 99.293%
Source Step = 99.3226%
Source Step = 99.3522%
Source Step = 99.3817%
Source Step = 99.4113%
Source Step = 99.4409%
Source Step = 99.4705%
Source Step = 99.5001%
Source Step = 99.5297%
Source Step = 99.5593%
Source Step = 99.5889%
Source Step = 99.6185%
Source Step = 99.6481%
Source Step = 99.6777%
Source Step = 99.7073%
Source Step = 99.7369%
Source Step = 99.7665%
Source Step = 99.796%
Source Step = 99.8256%
Source Step = 99.8552%
Source Step = 99.8848%
Source Step = 99.9144%
Source Step = 99.944%
Source Step = 99.9736%
Source Step = 100%
Source Step = 100%
Source Step = 100%
Source Step = 100%
Source Step = 100%
Source Step = 100%
Source Step = 100%
Source Step = 100%
Source Step = 100%
Source Step = 100%
Source Step = 100%
Source Step = 100%
Source Step = 100%
Source Step = 100%
Source Step = 100%
Source Step = 100%
Source Step = 100%
Source Step = 100%
Source Step = 100%
Source Step = 100%
Source Step = 100%
Source Step = 100%
Source Step = 100%
Source stepping aborted.
Pseudo Transient succeeded in finding the operating point at 655.632 ms.
Early termination of direct N-R iteration.
Direct Newton iteration failed to find .op point.  (Use ".option noopiter" to skip.)
Starting Gmin stepping
Gmin = 10
vernier = 0.5
Gmin = 1.67772
vernier = 0.25
vernier = 0.125
Gmin = 1.20453
vernier = 0.0625
vernier = 0.0833333
vernier = 0.0416667
Gmin = 1.12594
vernier = 0.0208333
vernier = 0.0277778
vernier = 0.0138889
Gmin = 1.09327
vernier = 0.0185185
vernier = 0.00925925
Gmin = 1.06829
vernier = 0.0123457
vernier = 0.00617283
vernier = 0.00823044
Gmin = 1.0533
vernier = 0.00411522
vernier = 0.00548696
Gmin = 1.0436
vernier = 0.00274348
vernier = 0.00365797
Gmin = 1.03718
vernier = 0.00182899
vernier = 0.00243865
Gmin = 1.03261
vernier = 0.00325153
vernier = 0.00162576
Gmin = 1.02842
vernier = 0.00216769
vernier = 0.00108384
vernier = 0.00144512
Gmin = 1.02568
vernier = 0.00192683
vernier = 0.000963415
Gmin = 1.02309
vernier = 0.00128455
vernier = 0.000642277
Gmin = 1.02079
vernier = 0.000856369
Gmin = 1.01883
vernier = 0.00114182
vernier = 0.000570912
vernier = 0.000761216
Gmin = 1.01752
vernier = 0.00101495
vernier = 0.000507477
Gmin = 1.0163
vernier = 0.000676636
vernier = 0.000902182
vernier = 0.000451091
Gmin = 1.01504
vernier = 0.000601454
vernier = 0.000451091
Gmin = 1.01405
vernier = 0.000601454
vernier = 0.000451091
vernier = 0.000601454
Gmin = 1.01309
vernier = 0.000451091
vernier = 0.000601454
vernier = 0.00045109
Gmin = 1.01245
Gmin = 0
Gmin stepping failed

Starting source stepping with srcstepmethod=0
Source Step = 3.0303%
Source Step = 33.3333%
Source Step = 63.6364%
Source Step = 93.9394%
Source Step = 93.9542%
Source Step = 93.9838%
Source Step = 94.0134%
Source Step = 94.043%
Source Step = 94.0726%
Source Step = 94.1022%
vernier = 0.00146484
Source Step = 94.1421%
Source Step = 94.1865%
Source Step = 94.2309%
Source Step = 94.2753%
Source Step = 94.3197%
vernier = 0.00219727
Source Step = 94.3774%
Source Step = 94.444%
Source Step = 94.5105%
Source Step = 94.5771%
Source Step = 94.6437%
vernier = 0.0032959
Source Step = 94.7269%
Source Step = 94.8268%
Source Step = 94.9267%
Source Step = 95.0266%
Source Step = 95.1264%
Source Step = 95.2263%
Source Step = 95.3262%
Source Step = 95.4261%
Source Step = 95.5259%
Source Step = 95.6258%
Source Step = 95.7257%
Source Step = 95.8256%
Source Step = 95.9254%
Source Step = 96.0253%
Source Step = 96.1252%
Source Step = 96.2251%
Source Step = 96.3249%
Source Step = 96.4248%
Source Step = 96.5247%
Source Step = 96.6246%
Source Step = 96.7244%
Source Step = 96.8243%
Source Step = 96.9242%
Source Step = 97.0241%
Source Step = 97.1239%
Source Step = 97.2238%
Source Step = 97.3237%
Source Step = 97.4236%
Source Step = 97.5235%
Source Step = 97.6233%
Source Step = 97.7232%
Source Step = 97.8231%
Source Step = 97.923%
Source Step = 98.0228%
Source Step = 98.1227%
Source Step = 98.2226%
Source Step = 98.3225%
Source Step = 98.4223%
Source Step = 98.5222%
Source Step = 98.6221%
Source Step = 98.722%
Source Step = 98.8218%
Source Step = 98.9217%
Source Step = 99.0216%
Source Step = 99.1215%
Source Step = 99.2213%
Source Step = 99.3212%
Source Step = 99.4211%
Source Step = 99.521%
Source Step = 99.6208%
Source Step = 99.7207%
Source Step = 99.8206%
Source Step = 99.9205%
Source Step = 100%
Source Step = 100%
Source Step = 100%
Source Step = 100%
Source Step = 100%
Source Step = 100%
Source Step = 100%
Source Step = 100%
Source Step = 100%
Source Step = 100%
Source Step = 100%
Source Step = 100%
Source Step = 100%
Source Step = 100%
Source Step = 100%
Source Step = 100%
Source Step = 100%
Source Step = 100%
Source Step = 100%
Source Step = 100%
Source Step = 100%
Source Step = 100%
Source Step = 100%
Source Step = 100%
Source Step = 100%
Source Step = 100%
Source Step = 100%
Source Step = 100%
Source Step = 100%
Source Step = 100%
Source Step = 100%
Source Step = 100%
Source Step = 100%
Source Step = 100%
Source Step = 100%
Source Step = 100%
Source Step = 100%
Source Step = 100%
Source Step = 100%
Source Step = 100%
Source Step = 100%
Source Step = 100%
Source Step = 100%
Source Step = 100%
Source Step = 100%
Source Step = 100%
Source Step = 100%
Source Step = 100%
Source Step = 100%
Source Step = 100%
Source Step = 100%
Source Step = 100%
Source Step = 100%
Source Step = 100%
Source Step = 100%
Source Step = 100%
Source Step = 100%
Source Step = 100%
Source Step = 100%
Source Step = 100%
Source Step = 100%
Source Step = 100%
Source Step = 100%
Source Step = 100%
Source Step = 100%
Source Step = 100%
Source Step = 100%
Source Step = 100%
Source Step = 100%
Source Step = 100%
Source Step = 100%
Source Step = 100%
Source Step = 100%
Source Step = 100%
Source Step = 100%
Source Step = 100%
Source Step = 100%
Source Step = 100%
Source Step = 100%
Source Step = 100%
Source Step = 100%
Source Step = 100%
Source Step = 100%
Source Step = 100%
Source Step = 100%
Source Step = 100%
Source Step = 100%
Source Step = 100%
Source Step = 100%
Source Step = 100%
Source Step = 100%
Source Step = 100%
Source Step = 100%
Source Step = 100%
Source Step = 100%
Source Step = 100%
Source Step = 100%
Source Step = 100%
Source Step = 100%
Source Step = 100%
Source Step = 100%
Source Step = 100%
Source Step = 100%
Source Step = 100%
Source Step = 100%
Source Step = 100%
Source Step = 100%
Source Step = 100%
Source Step = 100%
Source Step = 100%
Source Step = 100%
Source Step = 100%
Source Step = 100%
Source Step = 100%
Source Step = 100%
Source Step = 100%
Source Step = 100%
Source Step = 100%
Source Step = 100%
Source Step = 100%
Source Step = 100%
Source Step = 100%
Source Step = 100%
Source Step = 100%
Source Step = 100%
Source Step = 100%
Source Step = 100%
Source Step = 100%
Source Step = 100%
Source Step = 100%
Source Step = 100%
Source Step = 100%
Source Step = 100%
Source Step = 100%
Source Step = 100%
Source Step = 100%
Source Step = 100%
Source Step = 100%
Source Step = 100%
Source Step = 100%
Source Step = 100%
Source Step = 100%
Source Step = 100%
Source Step = 100%
Source Step = 100%
Source Step = 100%
Source Step = 100%
Source Step = 100%
Source Step = 100%
Source Step = 100%
Source Step = 100%
Source Step = 100%
Source Step = 100%
Source Step = 100%
Source Step = 100%
Source Step = 100%
Source Step = 100%
Source Step = 100%
Source Step = 100%
Source Step = 100%
Source Step = 100%
Source Step = 100%
Source Step = 100%
Source Step = 100%
Source Step = 100%
Source Step = 100%
Source Step = 100%
Source Step = 100%
Source Step = 100%
Source Step = 100%
Source Step = 100%
Source Step = 100%
Source Step = 100%
Source Step = 100%
Source Step = 100%
Source Step = 100%
Source Step = 100%
Source Step = 100%
Source Step = 100%
Source Step = 100%
Source Step = 100%
Source Step = 100%
Source Step = 100%
Source Step = 100%
Source Step = 100%
Source Step = 100%
Source Step = 100%
Source Step = 100%
Source Step = 100%
Source Step = 100%
Source Step = 100%
Source Step = 100%
Source Step = 100%
Source Step = 100%
Source Step = 100%
Source Step = 100%
Source Step = 100%
Source Step = 100%
Source Step = 100%
Source Step = 100%
Source Step = 100%
Source Step = 100%
Source Step = 100%
Source Step = 100%
Source Step = 100%
Source Step = 100%
Source Step = 100%
Source Step = 100%
Source Step = 100%
Source Step = 100%
Source Step = 100%
Source Step = 100%
Source Step = 100%
Source Step = 100%
Source Step = 100%
Source Step = 100%
Source Step = 100%
Source Step = 100%
Source Step = 100%
Source Step = 100%
Source Step = 100%
Source Step = 100%
Source Step = 100%
Source Step = 100%
Source stepping aborted.
Starting source stepping with srcstepmethod=1
Source Step = 3.0303%
Source Step = 33.3333%
Source Step = 63.6364%
Source Step = 93.9394%
vernier = 0.25
Source Step = 90.9268%
Source Step = 90.9564%
Source Step = 90.986%
Source Step = 91.0156%
Source Step = 91.0452%
Source Step = 91.0748%
Source Step = 91.1044%
Source Step = 91.134%
Source Step = 91.1636%
Source Step = 91.1932%
Source Step = 91.2228%
Source Step = 91.2524%
Source Step = 91.282%
Source Step = 91.3116%
Source Step = 91.3411%
Source Step = 91.3707%
Source Step = 91.4003%
Source Step = 91.4299%
Source Step = 91.4595%
Source Step = 91.4891%
Source Step = 91.5187%
Source Step = 91.5483%
Source Step = 91.5779%
Source Step = 91.6075%
Source Step = 91.6371%
Source Step = 91.6667%
Source Step = 91.6963%
Source Step = 91.7259%
Source Step = 91.7554%
Source Step = 91.785%
Source Step = 91.8146%
Source Step = 91.8442%
Source Step = 91.8738%
Source Step = 91.9034%
Source Step = 91.933%
Source Step = 91.9626%
Source Step = 91.9922%
Source Step = 92.0218%
Source Step = 92.0514%
Source Step = 92.081%
Source Step = 92.1106%
Source Step = 92.1402%
Source Step = 92.1697%
Source Step = 92.1993%
Source Step = 92.2289%
Source Step = 92.2585%
Source Step = 92.2881%
Source Step = 92.3177%
Source Step = 92.3473%
Source Step = 92.3769%
Source Step = 92.4065%
Source Step = 92.4361%
Source Step = 92.4657%
Source stepping aborted.
Pseudo Transient succeeded in finding the operating point at 327.874 ms.
Early termination of direct N-R iteration.
Direct Newton iteration failed to find .op point.  (Use ".option noopiter" to skip.)
Starting Gmin stepping
Gmin = 10
vernier = 0.5
Gmin = 1.67772
vernier = 0.25
vernier = 0.125
Gmin = 1.20453
vernier = 0.0625
vernier = 0.0833333
vernier = 0.0416667
Gmin = 1.12594
vernier = 0.0208333
vernier = 0.0277778
vernier = 0.0138889
Gmin = 1.09327
vernier = 0.0185185
vernier = 0.00925925
Gmin = 1.06829
vernier = 0.0123457
vernier = 0.00617283
vernier = 0.00823044
Gmin = 1.0533
vernier = 0.00411522
vernier = 0.00548696
Gmin = 1.0436
vernier = 0.00274348
vernier = 0.00365797
Gmin = 1.03718
vernier = 0.00182899
vernier = 0.00243865
Gmin = 1.03261
vernier = 0.00325153
vernier = 0.00162576
Gmin = 1.02842
vernier = 0.00216769
vernier = 0.00108384
vernier = 0.00144512
Gmin = 1.02568
vernier = 0.00192683
vernier = 0.000963415
Gmin = 1.02309
vernier = 0.00128455
vernier = 0.000642277
Gmin = 1.02079
vernier = 0.000856369
Gmin = 1.01883
vernier = 0.00114182
vernier = 0.000570912
vernier = 0.000761216
Gmin = 1.01752
vernier = 0.000570912
Gmin = 0
Gmin stepping aborted per request.

Starting source stepping with srcstepmethod=0
Source Step = 3.0303%
Source Step = 33.3333%
Source Step = 63.6364%
Source Step = 77.2727%
Source Step = 84.8485%
Source Step = 87.8847%
Source Step = 87.9143%
Source Step = 87.9439%
Source Step = 87.9735%
Source Step = 88.0031%
Source Step = 88.0327%
vernier = 0.00146484
Source Step = 88.0771%
Source Step = 88.1214%
Source Step = 88.1658%
Source Step = 88.2102%
Source Step = 88.2546%
vernier = 0.00219727
Source Step = 88.319%
Source Step = 88.3856%
Source Step = 88.4521%
Source Step = 88.5187%
Source Step = 88.5853%
vernier = 0.0032959
Source Step = 88.6785%
Source Step = 88.7784%
Source Step = 88.8783%
Source Step = 88.9782%
Source Step = 89.078%
vernier = 0.00494385
Source Step = 89.2129%
Source Step = 89.3627%
Source Step = 89.5125%
Source Step = 89.6623%
Source Step = 89.8121%
vernier = 0.00741577
Source Step = 90.0069%
Source Step = 90.1249%
Source Step = 90.181%
Source Step = 90.2372%
Source Step = 90.2934%
Source Step = 90.3496%
Source Step = 90.4058%
Source Step = 90.4619%
Source Step = 90.5181%
Source Step = 90.5743%
Source Step = 90.6305%
Source Step = 90.6867%
Source Step = 90.7428%
Source Step = 90.799%
Source Step = 90.8552%
Source Step = 90.9114%
Source Step = 90.9676%
Source Step = 91.0237%
Source Step = 91.0799%
Source Step = 91.1361%
Source Step = 91.1923%
Source Step = 91.2485%
Source Step = 91.3046%
Source Step = 91.3608%
Source stepping aborted.
Starting source stepping with srcstepmethod=1
Source Step = 3.0303%
Source Step = 33.3333%
Source Step = 63.6364%
Source Step = 81.8655%
Source Step = 82.339%
Source Step = 82.8125%
Source Step = 83.286%
Source Step = 83.7595%
Source Step = 84.233%
vernier = 0.0234375
Source Step = 84.9432%
Source Step = 85.6534%
Source Step = 86.3636%
Source Step = 87.0739%
Source Step = 87.7841%
vernier = 0.0351562
Source Step = 88.8139%
Source Step = 89.8793%
Source Step = 90.9446%
vernier = 0.00878906
Source Step = 90.898%
Source Step = 90.9646%
Source Step = 91.0312%
Source Step = 91.0977%
Source Step = 91.1643%
Source Step = 91.2309%
Source Step = 91.2975%
Source Step = 91.3641%
Source Step = 91.4307%
Source Step = 91.4972%
Source Step = 91.5638%
Source Step = 91.6304%
Source Step = 91.697%
Source Step = 91.7636%
Source Step = 91.8302%
Source Step = 91.8968%
Source Step = 91.9633%
Source Step = 92.0299%
Source Step = 92.0965%
Source Step = 92.1631%
Source Step = 92.2297%
Source Step = 92.2963%
Source Step = 92.3628%
Source Step = 92.4294%
Source Step = 92.496%
Source Step = 92.5626%
Source Step = 92.6292%
Source Step = 92.6958%
Source Step = 92.7623%
Source Step = 92.8289%
Source Step = 92.8955%
Source Step = 92.9621%
Source Step = 93.0287%
Source Step = 93.0953%
Source Step = 93.1618%
Source Step = 93.2284%
Source Step = 93.295%
Source Step = 93.3616%
Source Step = 93.4282%
Source Step = 93.4948%
Source Step = 93.5613%
Source Step = 93.6279%
Source Step = 93.6945%
Source Step = 93.7611%
Source Step = 93.8277%
Source Step = 93.8943%
Source Step = 93.9608%
Source Step = 94.0274%
Source Step = 94.094%
Source Step = 94.1606%
Source Step = 94.2272%
Source Step = 94.2938%
Source Step = 94.3604%
Source Step = 94.4269%
Source Step = 94.4935%
Source Step = 94.5601%
Source Step = 94.6267%
Source Step = 94.6933%
Source Step = 94.7599%
Source Step = 94.8264%
Source Step = 94.893%
Source Step = 94.9596%
Source Step = 95.0262%
Source Step = 95.0928%
Source Step = 95.1594%
Source Step = 95.2259%
Source Step = 95.2925%
Source Step = 95.3591%
Source Step = 95.4257%
Source Step = 95.4923%
Source Step = 95.5589%
Source Step = 95.6254%
Source Step = 95.692%
Source Step = 95.7586%
Source Step = 95.8252%
Source Step = 95.8918%
Source Step = 95.9584%
Source Step = 96.0249%
Source Step = 96.0915%
Source Step = 96.1581%
Source Step = 96.2247%
Source Step = 96.2913%
Source Step = 96.3579%
Source Step = 96.4244%
Source Step = 96.491%
Source Step = 96.5576%
Source Step = 96.6242%
Source Step = 96.6908%
Source Step = 96.7574%
Source Step = 96.824%
Source Step = 96.8905%
Source Step = 96.9571%
Source Step = 97.0237%
Source Step = 97.0903%
Source Step = 97.1569%
Source Step = 97.2235%
Source Step = 97.29%
Source Step = 97.3566%
Source Step = 97.4232%
Source Step = 97.4898%
Source Step = 97.5564%
Source Step = 97.623%
Source Step = 97.6895%
Source Step = 97.7561%
Source Step = 97.8227%
Source Step = 97.8893%
Source Step = 97.9559%
Source Step = 98.0225%
Source Step = 98.089%
Source Step = 98.1556%
Source Step = 98.2222%
Source Step = 98.2888%
Source Step = 98.3554%
Source Step = 98.422%
Source Step = 98.4885%
Source Step = 98.5551%
Source Step = 98.6217%
Source Step = 98.6883%
Source Step = 98.7549%
Source Step = 98.8215%
Source Step = 98.8881%
Source Step = 98.9546%
Source Step = 99.0212%
Source Step = 99.0878%
Source Step = 99.1544%
Source Step = 99.221%
Source Step = 99.2876%
Source Step = 99.3541%
Source Step = 99.4207%
Source Step = 99.4873%
Source Step = 99.5539%
Source Step = 99.6205%
Source Step = 99.6871%
Source stepping aborted.
Pseudo Transient succeeded in finding the operating point at 5.24313 s.
Early termination of direct N-R iteration.
Direct Newton iteration failed to find .op point.  (Use ".option noopiter" to skip.)
Starting Gmin stepping
Gmin = 10
vernier = 0.5
Gmin = 1.67772
vernier = 0.25
vernier = 0.125
Gmin = 1.20453
vernier = 0.0625
vernier = 0.0833333
vernier = 0.0416667
Gmin = 1.12594
vernier = 0.0208333
vernier = 0.0277778
vernier = 0.0138889
Gmin = 1.09327
vernier = 0.0185185
vernier = 0.00925925
Gmin = 1.06829
vernier = 0.0123457
vernier = 0.00617283
vernier = 0.00823044
Gmin = 1.0533
vernier = 0.00411522
vernier = 0.00548696
Gmin = 1.0436
vernier = 0.00274348
vernier = 0.00365797
Gmin = 1.03718
vernier = 0.00182899
vernier = 0.00243865
Gmin = 1.03261
vernier = 0.00325153
vernier = 0.00162576
Gmin = 1.02842
vernier = 0.00216769
vernier = 0.00108384
vernier = 0.00144512
Gmin = 1.02568
vernier = 0.00192683
vernier = 0.000963415
Gmin = 1.02309
vernier = 0.00128455
vernier = 0.000642277
Gmin = 1.02079
vernier = 0.000856369
Gmin = 1.01883
vernier = 0.00114182
vernier = 0.000570912
vernier = 0.000761216
Gmin = 1.01752
vernier = 0.00101495
vernier = 0.000507477
Gmin = 1.0163
vernier = 0.000676636
vernier = 0.000902182
vernier = 0.000451091
Gmin = 1.01504
vernier = 0.000601454
vernier = 0.000451091
Gmin = 1.01405
vernier = 0.000601454
vernier = 0.000451091
vernier = 0.000601454
Gmin = 1.01309
vernier = 0.000451091
vernier = 0.000601454
vernier = 0.00045109
Gmin = 1.01245
Gmin = 0
Gmin stepping failed

Starting source stepping with srcstepmethod=0
Source Step = 3.0303%
Source Step = 33.3333%
Source Step = 63.6364%
Source Step = 85.0379%
vernier = 0.015625
Source Step = 84.8722%
Source Step = 84.9018%
Source Step = 84.9313%
Source Step = 84.9609%
Source Step = 84.9905%
vernier = 0.00146484
Source Step = 85.029%
Source Step = 85.0734%
Source Step = 85.1178%
Source Step = 85.1622%
Source Step = 85.2066%
vernier = 0.00219727
Source Step = 85.262%
Source Step = 85.3286%
Source Step = 85.3952%
Source Step = 85.4618%
Source Step = 85.5284%
vernier = 0.0032959
Source Step = 85.6083%
Source Step = 85.7082%
Source Step = 85.808%
Source Step = 85.9079%
Source Step = 86.0078%
vernier = 0.00494385
Source Step = 86.1226%
Source Step = 86.2725%
Source Step = 86.4223%
Source Step = 86.5721%
Source Step = 86.7219%
vernier = 0.00741577
Source Step = 86.8867%
Source Step = 87.1114%
Source Step = 87.3361%
Source Step = 87.5609%
Source Step = 87.7856%
vernier = 0.0111237
Source Step = 88.0215%
Source Step = 88.3586%
Source Step = 88.6957%
Source Step = 89.0328%
Source Step = 89.3698%
Source Step = 89.7069%
vernier = 0.0166855
Source Step = 90.2126%
Source Step = 90.2378%
Source Step = 90.2694%
Source Step = 90.301%
Source Step = 90.3326%
Source Step = 90.3642%
Source Step = 90.3958%
Source Step = 90.4274%
Source Step = 90.459%
vernier = 0.00156426
Source Step = 90.4938%
Source Step = 90.5412%
Source Step = 90.5886%
Source Step = 90.636%
Source Step = 90.6834%
vernier = 0.0023464
Source Step = 90.7332%
Source Step = 90.8043%
Source Step = 90.8754%
Source Step = 90.9465%
Source Step = 91.0176%
Source Step = 91.0887%
vernier = 0.00351959
Source Step = 91.1954%
Source Step = 91.302%
Source Step = 91.4087%
Source Step = 91.5153%
Source Step = 91.622%
vernier = 0.00527939
Source Step = 91.7766%
Source Step = 91.9366%
Source Step = 92.0966%
Source Step = 92.2566%
Source Step = 92.4165%
vernier = 0.00791909
Source Step = 92.6405%
Source Step = 92.8805%
Source Step = 93.1205%
Source Step = 93.3604%
Source Step = 93.6004%
vernier = 0.0118786
Source Step = 93.9244%
Source Step = 94.2843%
Source Step = 94.6443%
Source Step = 95.0042%
Source Step = 95.3642%
vernier = 0.0178179
Source Step = 95.8322%
Source Step = 96.3721%
Source Step = 96.912%
Source Step = 97.452%
Source Step = 97.9919%
vernier = 0.0267269
Source Step = 98.6668%
Source Step = 99.4767%
Source stepping succeeded in finding the operating point.

.step 
Total elapsed time: 221.188 seconds.

Files loaded:
C:\Users\ramaz\Desktop\Circuitos II\TP-TA138-G7\Simulación\LDO\simulacion_LDO.net
C:\Users\ramaz\AppData\Local\LTspice\lib\cmp\standard.bjt
C:\Users\ramaz\Desktop\Circuitos II\TP-TA138-G7\Simulación\LDO\Modelos\irf4905.spi
C:\Users\ramaz\Desktop\Circuitos II\TP-TA138-G7\Simulación\LDO\Modelos\TL431.spi
C:\Users\ramaz\Desktop\Circuitos II\TP-TA138-G7\Simulación\LDO\Modelos\LM358.txt

Vo1_rl: V(Vo)=4.96188171874 at 10
Vo2_rl: V(Vo)=4.96635851962 at 20
RegLine: (Vo2_rl - Vo1_rl)/(Vin2_rl - Vin1_rl)=0.0004476800878
