LTspice 24.1.5 for Windows
Circuit: C:\Users\ramaz\Desktop\Circuitos II\TP-TA138-G7\Simulación\LDO\simulacion_LDO_lazo_corriente.net
Start Time: Wed Apr 22 22:23:13 2026
solver = Normal
Maximum thread count: 12
tnom = 27
temp = 27
method = trap
Direct Newton iteration failed to find .op point.  (Use ".option noopiter" to skip.)
Starting Gmin stepping
Gmin = 10
vernier = 0.5
Gmin = 1.67772
vernier = 0.25
vernier = 0.125
Gmin = 1.20453
vernier = 0.0625
vernier = 0.03125
Gmin = 1.14054
vernier = 0.0416667
vernier = 0.0208333
vernier = 0.0277778
Gmin = 1.08658
vernier = 0.0138889
vernier = 0.0185185
vernier = 0.00925925
Gmin = 1.07037
vernier = 0.0123457
vernier = 0.00617283
Gmin = 1.05481
vernier = 0.00823044
vernier = 0.00411522
vernier = 0.00548696
Gmin = 1.04509
vernier = 0.00274348
vernier = 0.00365797
Gmin = 1.03866
vernier = 0.00182899
vernier = 0.00243865
Gmin = 1.03377
vernier = 0.00325153
vernier = 0.00162576
Gmin = 1.02937
vernier = 0.00216769
vernier = 0.00108384
Gmin = 1.02658
vernier = 0.00144512
vernier = 0.00192683
vernier = 0.000963415
Gmin = 1.02387
vernier = 0.00128455
vernier = 0.000642277
Gmin = 1.02149
vernier = 0.000856369
Gmin = 1.01957
vernier = 0.00114182
vernier = 0.000570912
vernier = 0.000761216
Gmin = 1.01824
vernier = 0.00101495
vernier = 0.000507477
Gmin = 1.01695
vernier = 0.000676636
vernier = 0.000902182
vernier = 0.000451091
Gmin = 1.01567
vernier = 0.000601454
vernier = 0.000451091
Gmin = 1.01464
vernier = 0.000601454
vernier = 0.000451091
Gmin = 1.01373
vernier = 0.000601454
vernier = 0.000451091
vernier = 0.000601454
vernier = 0.00045109
Gmin = 1.01304
Gmin = 0
Gmin stepping failed

Starting source stepping with srcstepmethod=0
Source Step = 3.0303%
Source Step = 33.3333%
Source Step = 63.6364%
vernier = 0.25
Source Step = 60.6238%
Source Step = 60.6534%
Source Step = 60.683%
Source Step = 60.7126%
Source Step = 60.7422%
vernier = 0.00146484
Source Step = 60.7747%
Source Step = 60.8191%
Source Step = 60.8635%
Source Step = 60.9079%
Source Step = 60.9523%
vernier = 0.00219727
Source Step = 60.9989%
Source Step = 61.0655%
Source Step = 61.1321%
Source Step = 61.1987%
Source Step = 61.2652%
Source Step = 61.3318%
vernier = 0.0032959
Source Step = 61.4317%
Source Step = 61.5316%
Source Step = 61.6315%
Source Step = 61.7313%
Source Step = 61.8312%
vernier = 0.00494385
Source Step = 61.976%
Source Step = 62.1258%
Source Step = 62.2756%
Source Step = 62.4255%
Source Step = 62.5753%
vernier = 0.00741577
Source Step = 62.785%
Source Step = 63.0097%
Source Step = 63.2345%
Source Step = 63.4592%
Source Step = 63.6839%
vernier = 0.0111237
Source Step = 63.9873%
Source Step = 64.3244%
Source Step = 64.6614%
Source Step = 64.9985%
Source Step = 65.3356%
vernier = 0.0166855
Source Step = 65.7738%
Source Step = 66.2794%
Source Step = 66.785%
Source Step = 67.2907%
Source Step = 67.7963%
vernier = 0.0250282
Source Step = 68.4283%
Source Step = 69.1867%
Source Step = 69.9452%
Source Step = 70.7036%
Source Step = 71.462%
vernier = 0.0375423
Source Step = 72.3721%
Source Step = 73.5098%
Source Step = 74.6474%
Source Step = 75.7851%
Source Step = 76.9227%
vernier = 0.0563135
Source Step = 78.231%
Source Step = 79.9375%
Source Step = 81.644%
Source Step = 83.3504%
Source Step = 85.0569%
vernier = 0.0844703
Source Step = 86.934%
Source Step = 89.4937%
Source Step = 92.0534%
Source Step = 94.6131%
Source Step = 97.1728%
vernier = 0.126705
Source Step = 99.8605%
Source stepping succeeded in finding the operating point.

Total elapsed time: 3.192 seconds.

Files loaded:
C:\Users\ramaz\Desktop\Circuitos II\TP-TA138-G7\Simulación\LDO\simulacion_LDO_lazo_corriente.net
C:\Users\ramaz\AppData\Local\LTspice\lib\cmp\standard.bjt
C:\Users\ramaz\Desktop\Circuitos II\TP-TA138-G7\Simulación\LDO\Modelos\irf4905.spi
C:\Users\ramaz\Desktop\Circuitos II\TP-TA138-G7\Simulación\LDO\Modelos\TL431.spi
C:\Users\ramaz\Desktop\Circuitos II\TP-TA138-G7\Simulación\LDO\Modelos\LM358.txt

