LTspice 24.1.5 for Windows
Circuit: C:\users\sebastian\Desktop\FIUBA-2do Cuatrimestre\Taller de Diseño Electrónico TA138\TP_Taller_de_Diseño_ TA138_G7\Simulación\simulacion_LDO.net
Start Time: Sat Mar 28 08:06:12 2026
solver = Normal
Maximum thread count: 4
tnom = 27
temp = 27
method = trap
Direct Newton iteration failed to find .op point.  (Use ".option noopiter" to skip.)
Starting Gmin stepping
Gmin = 10
Gmin = 1.07374
Gmin = 0.115292
Gmin = 0.0123794
Gmin = 0.00132923
vernier = 0.5
vernier = 0.25
vernier = 0.125
Gmin = 0.000544452
vernier = 0.0625
vernier = 0.0833333
Gmin = 0.000468834
vernier = 0.111111
Gmin = 0.000366272
vernier = 0.148148
vernier = 0.197531
Gmin = 0.00024283
vernier = 0.263374
vernier = 0.351165
Gmin = 0.000127111
vernier = 0.46822
Gmin = 4.67254e-05
vernier = 0.624294
vernier = 0.832392
Gmin = 9.18824e-06
vernier = 1
Gmin = 1.0562e-06
Gmin = 1.13409e-07
Gmin = 1.21772e-08
Gmin = 1.30752e-09
Gmin = 1.40394e-10
Gmin = 1.50747e-11
Gmin = 1.61863e-12
Gmin = 1.73799e-13
Gmin = 0
Gmin stepping succeeded in finding the operating point.


Simulation stopped by user.
Total elapsed time: 9.459 seconds.

Files loaded:
C:\users\sebastian\Desktop\FIUBA-2do Cuatrimestre\Taller de Diseño Electrónico TA138\TP_Taller_de_Diseño_ TA138_G7\Simulación\simulacion_LDO.net
C:\users\sebastian\AppData\Local\LTspice\lib\cmp\standard.bjt
C:\users\sebastian\Desktop\FIUBA-2do Cuatrimestre\Taller de Diseño Electrónico TA138\TP_Taller_de_Diseño_ TA138_G7\Simulación\Modelos\irf4905.spi

