LTspice 24.1.5 for Windows
Circuit: C:\users\sebastian\Desktop\FIUBA-2do Cuatrimestre\Taller de Diseño Electrónico TA138\TP_Taller_de_Diseño_ TA138_G7\Simulación\simulacion_LDO.net
Start Time: Sat Mar 28 11:19:32 2026
solver = Normal
Maximum thread count: 4
tnom = 27
temp = 27
method = trap
Direct Newton iteration failed to find .op point.  (Use ".option noopiter" to skip.)
Starting Gmin stepping
Gmin = 10
Gmin = 1.07374
Gmin = 0.115292
Gmin = 0.0123794
Gmin = 0.00132923
Gmin = 0.000142725
Gmin = 1.5325e-05
Gmin = 1.6455e-06
Gmin = 1.76685e-07
Gmin = 1.89714e-08
Gmin = 2.03704e-09
Gmin = 2.18725e-10
Gmin = 2.34854e-11
Gmin = 2.52173e-12
Gmin = 2.70769e-13
Gmin = 0
Gmin stepping succeeded in finding the operating point.

Direct Newton iteration failed to find .op point.  (Use ".option noopiter" to skip.)
Starting Gmin stepping
Gmin = 10
Gmin = 1.07374
Gmin = 0.115292
Gmin = 0.0123794
Gmin = 0.00132923
Gmin = 0.000142725
Gmin = 1.5325e-05
Gmin = 1.6455e-06
Gmin = 1.76685e-07
Gmin = 1.89714e-08
Gmin = 2.03704e-09
Gmin = 2.18725e-10
Gmin = 2.34854e-11
Gmin = 2.52173e-12
Gmin = 2.70769e-13
Gmin = 0
Gmin stepping succeeded in finding the operating point.

Direct Newton iteration failed to find .op point.  (Use ".option noopiter" to skip.)
Starting Gmin stepping
Gmin = 10
Gmin = 1.07374
Gmin = 0.115292
Gmin = 0.0123794
Gmin = 0.00132923
Gmin = 0.000142725
Gmin = 1.5325e-05
Gmin = 1.6455e-06
Gmin = 1.76685e-07
Gmin = 1.89714e-08
Gmin = 2.03704e-09
Gmin = 2.18725e-10
Gmin = 2.34854e-11
Gmin = 2.52173e-12
Gmin = 2.70769e-13
Gmin = 0
Gmin stepping succeeded in finding the operating point.

Direct Newton iteration failed to find .op point.  (Use ".option noopiter" to skip.)
Starting Gmin stepping
Gmin = 10
Gmin = 1.07374
Gmin = 0.115292
Gmin = 0.0123794
Gmin = 0.00132923
Gmin = 0.000142725
Gmin = 1.5325e-05
Gmin = 1.6455e-06
vernier = 0.5
vernier = 0.25
vernier = 0.125
vernier = 0.0625
vernier = 0.03125
vernier = 0.015625
vernier = 0.0078125
vernier = 0.00390625
vernier = 0.00195312
vernier = 0.000976562
Gmin = 2.05688e-06
vernier = 0.000488281
Gmin = 0
Gmin stepping failed

Starting source stepping with srcstepmethod=0
Source Step = 3.0303%
Source Step = 33.3333%
Source Step = 63.6364%
Source Step = 79.5455%
Source Step = 87.1212%
Source Step = 94.697%
Source Step = 97.7332%
Source Step = 97.7628%
Source Step = 97.7924%
Source Step = 97.822%
Source Step = 97.8516%
Source Step = 97.8812%
vernier = 0.00146484
Source Step = 97.9196%
Source Step = 97.964%
Source Step = 98.0084%
Source Step = 98.0528%
Source Step = 98.0972%
vernier = 0.00219727
Source Step = 98.1527%
Source Step = 98.2193%
Source Step = 98.2858%
Source Step = 98.3524%
Source Step = 98.419%
vernier = 0.0032959
Source Step = 98.4989%
Source Step = 98.5988%
Source Step = 98.6987%
Source Step = 98.7985%
Source Step = 98.8984%
vernier = 0.00494385
Source Step = 99.0133%
Source Step = 99.1631%
Source Step = 99.3129%
Source Step = 99.4627%
Source Step = 99.6125%
vernier = 0.00741577
Source Step = 99.7773%
Source Step = 100%
Source stepping succeeded in finding the operating point.

Direct Newton iteration failed to find .op point.  (Use ".option noopiter" to skip.)
Starting Gmin stepping
Gmin = 10
Gmin = 1.07374
Gmin = 0.115292
Gmin = 0.0123794
Gmin = 0.00132923
Gmin = 0.000142725
Gmin = 1.5325e-05
vernier = 0.5
Gmin = 2.5711e-06
vernier = 0.25
vernier = 0.125
vernier = 0.0625
vernier = 0.03125
vernier = 0.015625
vernier = 0.0078125
vernier = 0.00390625
vernier = 0.00195312
vernier = 0.000976562
Gmin = 2.57047e-06
vernier = 0.00130208
Gmin = 2.56295e-06
vernier = 0.00173611
vernier = 0.00231481
Gmin = 2.55038e-06
vernier = 0.00308642
vernier = 0.00411522
Gmin = 2.53046e-06
vernier = 0.00548696
Gmin = 2.49943e-06
vernier = 0.00731595
vernier = 0.00975459
Gmin = 2.44821e-06
vernier = 0.0130061
vernier = 0.0173415
Gmin = 2.36874e-06
vernier = 0.023122
Gmin = 2.24896e-06
vernier = 0.0308293
vernier = 0.0411057
Gmin = 2.06165e-06
vernier = 0.0548076
vernier = 0.0730768
Gmin = 1.79534e-06
vernier = 0.0974357
Gmin = 1.44539e-06
vernier = 0.129914
vernier = 0.173219
Gmin = 1.00706e-06
vernier = 0.230959
vernier = 0.307945
Gmin = 5.69558e-07
vernier = 0.410593
Gmin = 2.35546e-07
vernier = 0.547457
vernier = 0.729942
Gmin = 5.58009e-08
vernier = 0.973256
vernier = 1
Gmin = 6.91424e-09
Gmin = 7.4241e-10
Gmin = 7.97157e-11
Gmin = 8.55941e-12
Gmin = 9.1906e-13
Gmin = 0
Gmin = 0
Gmin stepping succeeded in finding the operating point.

.step 
Total elapsed time: 1.229 seconds.

Files loaded:
C:\users\sebastian\Desktop\FIUBA-2do Cuatrimestre\Taller de Diseño Electrónico TA138\TP_Taller_de_Diseño_ TA138_G7\Simulación\simulacion_LDO.net
C:\users\sebastian\AppData\Local\LTspice\lib\cmp\standard.bjt
C:\users\sebastian\Desktop\FIUBA-2do Cuatrimestre\Taller de Diseño Electrónico TA138\TP_Taller_de_Diseño_ TA138_G7\Simulación\Modelos\irf4905.spi
C:\users\sebastian\Desktop\FIUBA-2do Cuatrimestre\Taller de Diseño Electrónico TA138\TP_Taller_de_Diseño_ TA138_G7\Simulación\Modelos\TL431.spi

Vo1_rl: V(Vo)=5.01816701889 at 10
Vo2_rl: V(Vo)=5.04252290726 at 20
RegLine: (Vo2_rl - Vo1_rl)/(Vin2_rl - Vin1_rl)=0.00243558883667
