LTspice 24.1.5 for Windows
Circuit: C:\users\sebastian\Desktop\FIUBA-2do Cuatrimestre\Taller de Diseño Electrónico TA138\TP_Taller_de_Diseño_ TA138_G7\Simulación\simulacion_LDO.net
Start Time: Wed Apr  8 16:38:46 2026
solver = Normal
Maximum thread count: 4
tnom = 27
temp = 27
method = trap
ERROR: Node nc_01 is floating and connected to current source IRL
ERROR: Node nc_02 is floating and connected to current source IRL
WARNING: Node nc_06 is floating.

Direct Newton iteration failed to find .op point.  (Use ".option noopiter" to skip.)
Starting Gmin stepping
Gmin = 10
vernier = 0.5
Gmin = 1.67772
vernier = 0.25
vernier = 0.125
Gmin = 1.20453
vernier = 0.0625
vernier = 0.0833333
vernier = 0.0416667
Gmin = 1.12594
vernier = 0.0208333
vernier = 0.0277778
vernier = 0.0138889
Gmin = 1.09327
vernier = 0.0185185
vernier = 0.00925925
Gmin = 1.06829
vernier = 0.0123457
vernier = 0.00617283
vernier = 0.00823044
Gmin = 1.0533
vernier = 0.00411522
vernier = 0.00548696
Gmin = 1.0436
vernier = 0.00274348
vernier = 0.00365797
Gmin = 1.03718
vernier = 0.00182899
vernier = 0.00243865
Gmin = 1.03229
vernier = 0.00325153
vernier = 0.00162576
Gmin = 1.0279
vernier = 0.00216769
vernier = 0.00108384
vernier = 0.00144512
Gmin = 1.0253
vernier = 0.00192683
vernier = 0.000963415
Gmin = 1.02271
vernier = 0.00128455
vernier = 0.000642277
Gmin = 1.02058
vernier = 0.000856369
vernier = 0.00114182
Gmin = 1.01849
vernier = 0.000570912
vernier = 0.000761216
Gmin = 1.01728
vernier = 0.00101495
vernier = 0.000507477
vernier = 0.000676636
Gmin = 1.01607
vernier = 0.000902182
vernier = 0.000451091
Gmin = 1.01487
vernier = 0.000601454
vernier = 0.000451091
Gmin = 1.01388
vernier = 0.000601454
vernier = 0.000451091
vernier = 0.000601454
vernier = 0.000451091
Gmin = 1.01319
vernier = 0.000601454
vernier = 0.00045109
Gmin = 1.01228
Gmin = 0
Gmin stepping failed

Starting source stepping with srcstepmethod=0
Source Step = 3.0303%
Source Step = 33.3333%
Source Step = 63.6364%
Source Step = 93.9394%
Source stepping succeeded in finding the operating point.

Direct Newton iteration failed to find .op point.  (Use ".option noopiter" to skip.)
Starting Gmin stepping
Gmin = 10
vernier = 0.5
Gmin = 1.67772
vernier = 0.25
vernier = 0.125
Gmin = 1.20453
vernier = 0.0625
vernier = 0.0833333
vernier = 0.0416667
Gmin = 1.12594
vernier = 0.0208333
vernier = 0.0277778
vernier = 0.0138889
Gmin = 1.09327
vernier = 0.0185185
vernier = 0.00925925
Gmin = 1.06829
vernier = 0.0123457
vernier = 0.00617283
vernier = 0.00823044
Gmin = 1.0533
vernier = 0.00411522
vernier = 0.00548696
Gmin = 1.0436
vernier = 0.00274348
vernier = 0.00365797
Gmin = 1.03718
vernier = 0.00182899
vernier = 0.00243865
Gmin = 1.03229
vernier = 0.00325153
vernier = 0.00162576
Gmin = 1.0279
vernier = 0.00216769
vernier = 0.00108384
vernier = 0.00144512
Gmin = 1.0253
vernier = 0.00192683
vernier = 0.000963415
Gmin = 1.02271
vernier = 0.00128455
vernier = 0.000642277
Gmin = 1.02058
vernier = 0.000856369
vernier = 0.00114182
Gmin = 1.01849
vernier = 0.000570912
vernier = 0.000761216
Gmin = 1.01728
vernier = 0.00101495
vernier = 0.000507477
vernier = 0.000676636
Gmin = 1.01607
vernier = 0.000902182
vernier = 0.000451091
Gmin = 1.01487
vernier = 0.000601454
vernier = 0.000451091
Gmin = 1.01388
vernier = 0.000601454
vernier = 0.000451091
vernier = 0.000601454
vernier = 0.000451091
Gmin = 1.01319
vernier = 0.000601454
vernier = 0.00045109
Gmin = 1.01228
Gmin = 0
Gmin stepping failed

Starting source stepping with srcstepmethod=0
Source Step = 3.0303%
Source Step = 33.3333%
Source Step = 63.6364%
Source Step = 93.9394%
Source stepping succeeded in finding the operating point.

Direct Newton iteration failed to find .op point.  (Use ".option noopiter" to skip.)
Starting Gmin stepping
Gmin = 10
vernier = 0.5
Gmin = 1.67772
vernier = 0.25
vernier = 0.125
Gmin = 1.20453
vernier = 0.0625
vernier = 0.03125
Gmin = 1.12325
vernier = 0.0416667
vernier = 0.0208333
vernier = 0.0104167
Gmin = 1.08598
vernier = 0.0138889
vernier = 0.00694444
Gmin = 1.06546
vernier = 0.00925925
vernier = 0.00462963
Gmin = 1.05199
vernier = 0.00617283
vernier = 0.00308642
Gmin = 1.04271
vernier = 0.00411522
vernier = 0.00205761
Gmin = 1.03603
vernier = 0.00274348
vernier = 0.00365797
vernier = 0.00182899
Gmin = 1.03071
vernier = 0.00243865
vernier = 0.00121932
Gmin = 1.02742
vernier = 0.00162576
vernier = 0.00216769
vernier = 0.00108384
Gmin = 1.02429
vernier = 0.00144512
vernier = 0.000722562
Gmin = 1.02198
vernier = 0.000963415
Gmin = 1.01977
vernier = 0.00128455
vernier = 0.000642277
vernier = 0.000856369
Gmin = 1.0183
vernier = 0.00114182
vernier = 0.000570912
Gmin = 1.01692
vernier = 0.000761216
vernier = 0.000570912
Gmin = 1.01556
vernier = 0.000761216
vernier = 0.000570912
vernier = 0.000761216
vernier = 0.000570912
Gmin = 1.01469
vernier = 0.000761216
vernier = 0.000570912
vernier = 0.000428184
Gmin = 1.01386
vernier = 0.000570912
vernier = 0.000428184
Gmin = 1.01299
vernier = 0.000570912
vernier = 0.000428184
vernier = 0.000570911
vernier = 0.000428184
Gmin = 1.01234
Gmin = 0
Gmin stepping failed

Starting source stepping with srcstepmethod=0
Source Step = 3.0303%
Source Step = 33.3333%
Source Step = 63.6364%
Source Step = 93.9394%
Source stepping succeeded in finding the operating point.

Direct Newton iteration failed to find .op point.  (Use ".option noopiter" to skip.)
Starting Gmin stepping
Gmin = 10
vernier = 0.5
Gmin = 1.67772
vernier = 0.25
vernier = 0.125
Gmin = 1.20453
vernier = 0.0625
vernier = 0.03125
Gmin = 1.12325
vernier = 0.0416667
vernier = 0.0208333
vernier = 0.0104167
Gmin = 1.08598
vernier = 0.0138889
vernier = 0.00694444
Gmin = 1.06546
vernier = 0.00925925
vernier = 0.00462963
Gmin = 1.05199
vernier = 0.00617283
vernier = 0.00308642
Gmin = 1.04271
vernier = 0.00411522
vernier = 0.00205761
Gmin = 1.03603
vernier = 0.00274348
vernier = 0.00365797
vernier = 0.00182899
Gmin = 1.03071
vernier = 0.00243865
vernier = 0.00121932
Gmin = 1.02742
vernier = 0.00162576
vernier = 0.00216769
vernier = 0.00108384
Gmin = 1.02429
vernier = 0.00144512
vernier = 0.000722562
Gmin = 1.02198
vernier = 0.000963415
Gmin = 1.01977
vernier = 0.00128455
vernier = 0.000642277
vernier = 0.000856369
Gmin = 1.0183
vernier = 0.00114182
vernier = 0.000570912
Gmin = 1.01692
vernier = 0.000761216
vernier = 0.000570912
Gmin = 1.01556
vernier = 0.000761216
vernier = 0.000570912
vernier = 0.000761216
vernier = 0.000570912
Gmin = 1.01469
vernier = 0.000761216
vernier = 0.000570912
vernier = 0.000428184
Gmin = 1.01386
vernier = 0.000570912
vernier = 0.000428184
Gmin = 1.01299
vernier = 0.000570912
vernier = 0.000428184
vernier = 0.000570911
vernier = 0.000428184
Gmin = 1.01234
Gmin = 0
Gmin stepping failed

Starting source stepping with srcstepmethod=0
Source Step = 3.0303%
Source Step = 33.3333%
Source Step = 63.6364%
Source Step = 93.9394%
Source stepping succeeded in finding the operating point.

Early termination of direct N-R iteration.
Direct Newton iteration failed to find .op point.  (Use ".option noopiter" to skip.)
Starting Gmin stepping
Gmin = 10
vernier = 0.5
Gmin = 1.67772
vernier = 0.25
vernier = 0.125
Gmin = 1.20453
vernier = 0.0625
vernier = 0.03125
Gmin = 1.12325
vernier = 0.0416667
vernier = 0.0208333
vernier = 0.0104167
Gmin = 1.08598
vernier = 0.0138889
vernier = 0.00694444
Gmin = 1.06546
vernier = 0.00925925
vernier = 0.00462963
Gmin = 1.05199
vernier = 0.00617283
vernier = 0.00308642
Gmin = 1.04271
vernier = 0.00411522
vernier = 0.00205761
Gmin = 1.03603
vernier = 0.00274348
vernier = 0.00365797
vernier = 0.00182899
Gmin = 1.03071
vernier = 0.00243865
vernier = 0.00121932
Gmin = 1.02742
vernier = 0.00162576
vernier = 0.00216769
vernier = 0.00108384
Gmin = 1.02429
vernier = 0.00144512
vernier = 0.000722562
Gmin = 1.02217
vernier = 0.000963415
vernier = 0.00128455
Gmin = 1.01981
vernier = 0.000642277
vernier = 0.000856369
Gmin = 1.01845
vernier = 0.00114182
vernier = 0.000570912
vernier = 0.000761216
Gmin = 1.01709
vernier = 0.00101495
vernier = 0.000507477
Gmin = 1.01574
vernier = 0.000676636
vernier = 0.000507477
Gmin = 1.01466
vernier = 0.000676636
vernier = 0.000507477
vernier = 0.000676636
vernier = 0.000507477
Gmin = 1.01389
vernier = 0.000676636
vernier = 0.000507477
Gmin = 0
Gmin stepping failed

Starting source stepping with srcstepmethod=0
Source Step = 3.0303%
Source Step = 33.3333%
Source Step = 63.6364%
Source Step = 93.9394%
Source Step = 94.7088%
Source Step = 94.7384%
Source Step = 94.768%
Source Step = 94.7976%
Source Step = 94.8272%
vernier = 0.00146484
Source Step = 94.8583%
Source Step = 94.9026%
Source Step = 94.947%
Source Step = 94.9914%
Source Step = 95.0358%
Source Step = 95.0802%
vernier = 0.00219727
Source Step = 95.1468%
Source Step = 95.2134%
Source Step = 95.2799%
Source Step = 95.3465%
Source Step = 95.4131%
vernier = 0.0032959
Source Step = 95.5097%
Source Step = 95.6095%
Source Step = 95.7094%
Source Step = 95.8093%
Source Step = 95.9092%
vernier = 0.00494385
Source Step = 96.049%
Source Step = 96.1988%
Source Step = 96.3486%
Source Step = 96.4984%
Source Step = 96.6482%
vernier = 0.00741577
Source Step = 96.8505%
Source Step = 97.0752%
Source Step = 97.2999%
Source Step = 97.5247%
Source Step = 97.7494%
vernier = 0.0111237
Source Step = 98.0415%
Source Step = 98.3786%
Source Step = 98.7157%
Source Step = 99.0528%
Source Step = 99.3898%
vernier = 0.0166855
Source Step = 99.8112%
Source stepping succeeded in finding the operating point.

Early termination of direct N-R iteration.
Direct Newton iteration failed to find .op point.  (Use ".option noopiter" to skip.)
Starting Gmin stepping
Gmin = 10
vernier = 0.5
Gmin = 1.67772
vernier = 0.25
vernier = 0.125
Gmin = 1.20453
vernier = 0.0625
vernier = 0.0833333
vernier = 0.0416667
Gmin = 1.12594
vernier = 0.0208333
vernier = 0.0277778
vernier = 0.0138889
Gmin = 1.09327
vernier = 0.0185185
vernier = 0.00925925
Gmin = 1.06829
vernier = 0.0123457
vernier = 0.00617283
vernier = 0.00823044
Gmin = 1.0533
vernier = 0.00411522
vernier = 0.00548696
Gmin = 1.0436
vernier = 0.00274348
vernier = 0.00365797
Gmin = 1.03718
vernier = 0.00182899
vernier = 0.00243865
Gmin = 1.03261
vernier = 0.00325153
vernier = 0.00162576
Gmin = 1.02842
vernier = 0.00216769
vernier = 0.00108384
vernier = 0.00144512
Gmin = 1.02568
vernier = 0.00192683
vernier = 0.000963415
Gmin = 1.02309
vernier = 0.00128455
vernier = 0.000642277
Gmin = 1.02096
vernier = 0.000856369
vernier = 0.00114182
Gmin = 1.01887
vernier = 0.000570912
vernier = 0.000761216
Gmin = 1.01766
vernier = 0.00101495
vernier = 0.000507477
vernier = 0.000676636
Gmin = 1.01645
vernier = 0.000902182
vernier = 0.000451091
Gmin = 1.01525
vernier = 0.000601454
vernier = 0.000451091
Gmin = 1.01418
vernier = 0.000601454
